#       Name:                EN300-109345_i001
#       Creating user name   aseyller
#       Creation time:       Fri Apr 21 12:23:18 2023


#       File generated by GOLD software.
#

@<TRIPOS>MOLECULE
EN300-109345_i001|amine_1|mol2|39|dock5
    23    23     1
SMALL
USER_CHARGES


@<TRIPOS>ATOM
      1 C1          28.7116  36.6954  41.4908 C.3            1 <1>                0.0000
      2 N2          29.6543  36.0205  40.5886 N.4            1 <1>                1.0000
      3 C3          29.8155  36.8162  39.3644 C.3            1 <1>                0.0000
      4 C4          30.8749  36.1903  38.4944 C.2            1 <1>                0.0000
      5 C5          31.5844  35.0183  38.7759 C.2            1 <1>                0.0000
      6 N6          32.4132  34.7950  37.7884 N.2            1 <1>                0.0000
      7 N7          32.2570  35.8194  36.8459 N.pl3          1 <1>                0.0000
      8 C8          32.9944  35.9521  35.5869 C.3            1 <1>                0.0000
      9 C9          32.5528  37.1686  34.8855 C.1            1 <1>                0.0000
     10 C10         32.2007  38.1387  34.3260 C.1            1 <1>                0.0000
     11 C11         31.3037  36.6598  37.2998 C.2            1 <1>                0.0000
     12 H12         27.7462  36.7998  40.9956 H              1 <1>                0.0000
     13 H13         28.5920  36.1050  42.3992 H              1 <1>                0.0000
     14 H14         29.0972  37.6823  41.7470 H              1 <1>                0.0000
     15 H15         28.8703  36.8445  38.8224 H              1 <1>                0.0000
     16 H16         30.1141  37.8310  39.6273 H              1 <1>                0.0000
     17 H17         31.4683  34.4038  39.6565 H              1 <1>                0.0000
     18 H18         34.0619  36.0208  35.7966 H              1 <1>                0.0000
     19 H19         32.8026  35.0813  34.9601 H              1 <1>                0.0000
     20 H20         31.8857  39.0064  33.8257 H              1 <1>                0.0000
     21 H21         30.9510  37.5510  36.8022 H              1 <1>                0.0000
     22 H22         30.5479  35.9239  41.0471 H              1 <1>                0.0000
     23 H23         29.2975  35.1070  40.3515 H              1 <1>                0.0000
@<TRIPOS>BOND
    1    1    2 1     
    2    1   12 1     
    3    1   13 1     
    4    1   14 1     
    5    2    3 1     
    6    2   22 1     
    7    2   23 1     
    8    3    4 1     
    9    3   15 1     
   10    3   16 1     
   11    4    5 1     
   12    4   11 2     
   13    5    6 2     
   14    5   17 1     
   15    6    7 1     
   16    7    8 1     
   17    7   11 1     
   18    8    9 1     
   19    8   18 1     
   20    8   19 1     
   21    9   10 3     
   22   10   20 1     
   23   11   21 1     
@<TRIPOS>SUBSTRUCTURE
      1 ****           1
@<TRIPOS>SET
DONOR_HYDROGENS      STATIC     ATOMS    <user>   **** ""
2 22 23
ATOM$RED        STATIC     ATOMS    COLORGROUP SYSTEM
2 22 23
@<TRIPOS>COMMENT
> <Gold.Version>
2022.2.0

> <Gold.Id.Protein>
1qkm|1qkm_protein|mol2

> <Gold.Protein.RotatedTorsions>
[  496  491  490  487 ] final -111.34 input  -89.99 | X-H torsion

> <Gold.Protein.ActiveResidues>
 MET295  LEU298  THR299  LEU301  ALA302  GLU305  TRP335  MET336  LEU339  MET340 
 GLY342  LEU343  ARG346  PHE356  ILE373  ILE376  PHE377  LEU380  LYS471  GLY472 
 MET473  HIS475  LEU476  LEU477  ASN478  MET479  VAL484  VAL487 

> <Gold.Protein.RotatedAtoms>
   36.9520   34.4606   40.8626 H   0  0  0  0  0  0  0  0  0  0  0  0  # atno 496  bound_to 491 

> <Gold.Score>
     Score     S(PLP)   S(hbond)     S(cho)   S(metal)  DE(clash)   DE(tors)     intcor
     46.70     -40.90       1.00       0.94       0.00       0.00       0.01       0.00

> <Gold.PLP.Fitness>
46.7019

> <Gold.PLP.PLP>
-40.8987

> <Gold.PLP.part.hbond>
-1.0000

> <Gold.PLP.part.metal>
0.0000

> <Gold.PLP.part.buried>
-3.4267

> <Gold.PLP.part.nonpolar>
-36.2757

> <Gold.PLP.part.repulsive>
0.0991

> <Gold.PLP.ligand.clash>
0.0000

> <Gold.PLP.ligand.torsion>
0.0089

> <Gold.PLP.Chemscore.Hbond>
1.0000

> <Gold.PLP.Chemscore.CHOScore>
0.9403

> <Gold.PLP.Chemscore.Metal>
0.0000

> <Gold.Chemscore.Hbonds>
donor molecule, donor type, donor heavy atom, donor atom, acceptor molecule, acceptor atom, score
      L1  H     2    22       P1   470  1.00
      L1  C     5    17       P1   470  0.94

> <Gold.PLP.Chemscore.Internal.Correction>
0.0001

