#       Name:                EN300-109345_i001
#       Creating user name   aseyller
#       Creation time:       Fri Apr 21 12:23:20 2023


#       File generated by GOLD software.
#

@<TRIPOS>MOLECULE
EN300-109345_i001|amine_1|mol2|39|dock9
    23    23     1
SMALL
USER_CHARGES


@<TRIPOS>ATOM
      1 C1          25.7961  36.9974  41.4990 C.3            1 <1>                0.0000
      2 N2          26.2215  35.5914  41.5031 N.4            1 <1>                1.0000
      3 C3          27.6875  35.5232  41.4386 C.3            1 <1>                0.0000
      4 C4          28.1591  36.0862  40.1227 C.2            1 <1>                0.0000
      5 C5          27.3574  36.3587  39.0094 C.2            1 <1>                0.0000
      6 N6          28.1225  36.8370  38.0620 N.2            1 <1>                0.0000
      7 N7          29.4372  36.8841  38.5431 N.pl3          1 <1>                0.0000
      8 C8          30.6098  37.3558  37.8022 C.3            1 <1>                0.0000
      9 C9          30.3290  38.6840  37.2332 C.1            1 <1>                0.0000
     10 C10         30.1051  39.7434  36.7796 C.1            1 <1>                0.0000
     11 C11         29.4322  36.4232  39.8114 C.2            1 <1>                0.0000
     12 H12         26.1423  37.4791  40.5845 H              1 <1>                0.0000
     13 H13         24.7083  37.0481  41.5469 H              1 <1>                0.0000
     14 H14         26.2220  37.5085  42.3625 H              1 <1>                0.0000
     15 H15         28.1146  36.1038  42.2562 H              1 <1>                0.0000
     16 H16         28.0071  34.4846  41.5249 H              1 <1>                0.0000
     17 H17         26.2910  36.2012  38.9433 H              1 <1>                0.0000
     18 H18         31.4632  37.4227  38.4771 H              1 <1>                0.0000
     19 H19         30.8368  36.6564  36.9977 H              1 <1>                0.0000
     20 H20         29.9048  40.6908  36.3737 H              1 <1>                0.0000
     21 H21         30.2913  36.3330  40.4596 H              1 <1>                0.0000
     22 H22         25.9010  35.1455  42.3497 H              1 <1>                0.0000
     23 H23         25.8273  35.1183  40.7039 H              1 <1>                0.0000
@<TRIPOS>BOND
    1    1    2 1     
    2    1   12 1     
    3    1   13 1     
    4    1   14 1     
    5    2    3 1     
    6    2   22 1     
    7    2   23 1     
    8    3    4 1     
    9    3   15 1     
   10    3   16 1     
   11    4    5 1     
   12    4   11 2     
   13    5    6 2     
   14    5   17 1     
   15    6    7 1     
   16    7    8 1     
   17    7   11 1     
   18    8    9 1     
   19    8   18 1     
   20    8   19 1     
   21    9   10 3     
   22   10   20 1     
   23   11   21 1     
@<TRIPOS>SUBSTRUCTURE
      1 ****           1
@<TRIPOS>SET
DONOR_HYDROGENS      STATIC     ATOMS    <user>   **** ""
2 22 23
ATOM$RED        STATIC     ATOMS    COLORGROUP SYSTEM
2 22 23
@<TRIPOS>COMMENT
> <Gold.Version>
2022.2.0

> <Gold.Id.Protein>
1qkm|1qkm_protein|mol2

> <Gold.Protein.RotatedTorsions>
[  496  491  490  487 ] final   15.14 input  -89.99 | X-H torsion

> <Gold.Protein.ActiveResidues>
 MET295  LEU298  THR299  LEU301  ALA302  GLU305  TRP335  MET336  LEU339  MET340 
 GLY342  LEU343  ARG346  PHE356  ILE373  ILE376  PHE377  LEU380  LYS471  GLY472 
 MET473  HIS475  LEU476  LEU477  ASN478  MET479  VAL484  VAL487 

> <Gold.Protein.RotatedAtoms>
   36.2863   33.9875   42.3357 H   0  0  0  0  0  0  0  0  0  0  0  0  # atno 496  bound_to 491 

> <Gold.Score>
     Score     S(PLP)   S(hbond)     S(cho)   S(metal)  DE(clash)   DE(tors)     intcor
     47.24     -38.71       2.00       1.00       0.00       0.00       0.23       0.00

> <Gold.PLP.Fitness>
47.2401

> <Gold.PLP.PLP>
-38.7092

> <Gold.PLP.part.hbond>
-0.9155

> <Gold.PLP.part.metal>
0.0000

> <Gold.PLP.part.buried>
-1.1935

> <Gold.PLP.part.nonpolar>
-36.6621

> <Gold.PLP.part.repulsive>
0.0416

> <Gold.PLP.ligand.clash>
0.0000

> <Gold.PLP.ligand.torsion>
0.2326

> <Gold.PLP.Chemscore.Hbond>
2.0000

> <Gold.PLP.Chemscore.CHOScore>
0.9987

> <Gold.PLP.Chemscore.Metal>
0.0000

> <Gold.Chemscore.Hbonds>
donor molecule, donor type, donor heavy atom, donor atom, acceptor molecule, acceptor atom, score
      L1  H     2    22       P1   582  2.00
      L1  C    11    21       P1   470  1.00

> <Gold.PLP.Chemscore.Internal.Correction>
0.0001

