#       Name:                EN300-109345_i001
#       Creating user name   aseyller
#       Creation time:       Fri Apr 21 12:23:25 2023


#       File generated by GOLD software.
#

@<TRIPOS>MOLECULE
EN300-109345_i001|amine_1|mol2|39|dock16
    23    23     1
SMALL
USER_CHARGES


@<TRIPOS>ATOM
      1 C1          32.6093  36.7172  35.5398 C.3            1 <1>                0.0000
      2 N2          31.3587  36.9276  36.2813 N.4            1 <1>                1.0000
      3 C3          31.5433  36.5164  37.6794 C.3            1 <1>                0.0000
      4 C4          30.2325  36.6307  38.4139 C.2            1 <1>                0.0000
      5 C5          29.0409  37.1481  37.8954 C.2            1 <1>                0.0000
      6 N6          28.1260  37.0809  38.8282 N.2            1 <1>                0.0000
      7 N7          28.7072  36.5179  39.9715 N.pl3          1 <1>                0.0000
      8 C8          28.0311  36.2640  41.2463 C.3            1 <1>                0.0000
      9 C9          26.6276  36.6976  41.1521 C.1            1 <1>                0.0000
     10 C10         25.5082  37.0433  41.0771 C.1            1 <1>                0.0000
     11 C11         29.9986  36.2456  39.6899 C.2            1 <1>                0.0000
     12 H12         32.8796  35.6619  35.5753 H              1 <1>                0.0000
     13 H13         32.4723  37.0224  34.5024 H              1 <1>                0.0000
     14 H14         33.4038  37.3112  35.9914 H              1 <1>                0.0000
     15 H15         31.8888  35.4831  37.7116 H              1 <1>                0.0000
     16 H16         32.2830  37.1617  38.1534 H              1 <1>                0.0000
     17 H17         28.9005  37.5363  36.8974 H              1 <1>                0.0000
     18 H18         28.0678  35.1980  41.4710 H              1 <1>                0.0000
     19 H19         28.5307  36.8200  42.0395 H              1 <1>                0.0000
     20 H20         24.5070  37.3526  41.0099 H              1 <1>                0.0000
     21 H21         30.7183  35.8054  40.3642 H              1 <1>                0.0000
     22 H22         31.1085  37.9046  36.2484 H              1 <1>                0.0000
     23 H23         30.6232  36.3779  35.8633 H              1 <1>                0.0000
@<TRIPOS>BOND
    1    1    2 1     
    2    1   12 1     
    3    1   13 1     
    4    1   14 1     
    5    2    3 1     
    6    2   22 1     
    7    2   23 1     
    8    3    4 1     
    9    3   15 1     
   10    3   16 1     
   11    4    5 1     
   12    4   11 2     
   13    5    6 2     
   14    5   17 1     
   15    6    7 1     
   16    7    8 1     
   17    7   11 1     
   18    8    9 1     
   19    8   18 1     
   20    8   19 1     
   21    9   10 3     
   22   10   20 1     
   23   11   21 1     
@<TRIPOS>SUBSTRUCTURE
      1 ****           1
@<TRIPOS>SET
DONOR_HYDROGENS      STATIC     ATOMS    <user>   **** ""
2 22 23
ATOM$RED        STATIC     ATOMS    COLORGROUP SYSTEM
2 22 23
@<TRIPOS>COMMENT
> <Gold.Version>
2022.2.0

> <Gold.Id.Protein>
1qkm|1qkm_protein|mol2

> <Gold.Protein.RotatedTorsions>
[  496  491  490  487 ] final   53.53 input  -89.99 | X-H torsion

> <Gold.Protein.ActiveResidues>
 MET295  LEU298  THR299  LEU301  ALA302  GLU305  TRP335  MET336  LEU339  MET340 
 GLY342  LEU343  ARG346  PHE356  ILE373  ILE376  PHE377  LEU380  LYS471  GLY472 
 MET473  HIS475  LEU476  LEU477  ASN478  MET479  VAL484  VAL487 

> <Gold.Protein.RotatedAtoms>
   36.4996   33.4051   42.3384 H   0  0  0  0  0  0  0  0  0  0  0  0  # atno 496  bound_to 491 

> <Gold.Score>
     Score     S(PLP)   S(hbond)     S(cho)   S(metal)  DE(clash)   DE(tors)     intcor
     41.66     -38.72       0.00       1.00       0.00       0.00       0.03       0.00

> <Gold.PLP.Fitness>
41.6566

> <Gold.PLP.PLP>
-38.7154

> <Gold.PLP.part.hbond>
0.0000

> <Gold.PLP.part.metal>
0.0000

> <Gold.PLP.part.buried>
-2.4815

> <Gold.PLP.part.nonpolar>
-36.7788

> <Gold.PLP.part.repulsive>
0.0000

> <Gold.PLP.ligand.clash>
0.0000

> <Gold.PLP.ligand.torsion>
0.0295

> <Gold.PLP.Chemscore.Hbond>
0.0000

> <Gold.PLP.Chemscore.CHOScore>
1.0000

> <Gold.PLP.Chemscore.Metal>
0.0000

> <Gold.Chemscore.Hbonds>
donor molecule, donor type, donor heavy atom, donor atom, acceptor molecule, acceptor atom, score
      L1  C    11    21       P1   470  1.00

> <Gold.PLP.Chemscore.Internal.Correction>
0.0001

