#       Name:                EN300-109345_i001
#       Creating user name   aseyller
#       Creation time:       Fri Apr 21 12:23:28 2023


#       File generated by GOLD software.
#

@<TRIPOS>MOLECULE
EN300-109345_i001|amine_1|mol2|39|dock20
    23    23     1
SMALL
USER_CHARGES


@<TRIPOS>ATOM
      1 C1          25.4997  37.2861  41.2093 C.3            1 <1>                0.0000
      2 N2          26.5652  36.3310  41.5419 N.4            1 <1>                1.0000
      3 C3          26.8671  35.5049  40.3654 C.3            1 <1>                0.0000
      4 C4          28.0804  36.0567  39.6621 C.2            1 <1>                0.0000
      5 C5          29.4138  35.8037  40.0004 C.2            1 <1>                0.0000
      6 N6          30.1787  36.4557  39.1628 N.2            1 <1>                0.0000
      7 N7          29.3551  37.1452  38.2637 N.pl3          1 <1>                0.0000
      8 C8          29.8066  37.9992  37.1622 C.3            1 <1>                0.0000
      9 C9          31.2406  37.7713  36.9207 C.1            1 <1>                0.0000
     10 C10         32.3843  37.5894  36.7282 C.1            1 <1>                0.0000
     11 C11         28.0724  36.8797  38.5879 C.2            1 <1>                0.0000
     12 H12         24.6047  36.7416  40.9084 H              1 <1>                0.0000
     13 H13         25.2758  37.8991  42.0823 H              1 <1>                0.0000
     14 H14         25.8282  37.9262  40.3905 H              1 <1>                0.0000
     15 H15         27.0650  34.4808  40.6816 H              1 <1>                0.0000
     16 H16         26.0158  35.5170  39.6847 H              1 <1>                0.0000
     17 H17         29.7532  35.1784  40.8129 H              1 <1>                0.0000
     18 H18         29.2434  37.7575  36.2608 H              1 <1>                0.0000
     19 H19         29.6437  39.0449  37.4230 H              1 <1>                0.0000
     20 H20         33.4073  37.4269  36.5559 H              1 <1>                0.0000
     21 H21         27.1963  37.2611  38.0846 H              1 <1>                0.0000
     22 H22         27.3938  36.8351  41.8205 H              1 <1>                0.0000
     23 H23         26.2613  35.7385  42.2999 H              1 <1>                0.0000
@<TRIPOS>BOND
    1    1    2 1     
    2    1   12 1     
    3    1   13 1     
    4    1   14 1     
    5    2    3 1     
    6    2   22 1     
    7    2   23 1     
    8    3    4 1     
    9    3   15 1     
   10    3   16 1     
   11    4    5 1     
   12    4   11 2     
   13    5    6 2     
   14    5   17 1     
   15    6    7 1     
   16    7    8 1     
   17    7   11 1     
   18    8    9 1     
   19    8   18 1     
   20    8   19 1     
   21    9   10 3     
   22   10   20 1     
   23   11   21 1     
@<TRIPOS>SUBSTRUCTURE
      1 ****           1
@<TRIPOS>SET
DONOR_HYDROGENS      STATIC     ATOMS    <user>   **** ""
2 22 23
ATOM$RED        STATIC     ATOMS    COLORGROUP SYSTEM
2 22 23
@<TRIPOS>COMMENT
> <Gold.Version>
2022.2.0

> <Gold.Id.Protein>
1qkm|1qkm_protein|mol2

> <Gold.Protein.RotatedTorsions>
[  496  491  490  487 ] final  -45.48 input  -89.99 | X-H torsion

> <Gold.Protein.ActiveResidues>
 MET295  LEU298  THR299  LEU301  ALA302  GLU305  TRP335  MET336  LEU339  MET340 
 GLY342  LEU343  ARG346  PHE356  ILE373  ILE376  PHE377  LEU380  LYS471  GLY472 
 MET473  HIS475  LEU476  LEU477  ASN478  MET479  VAL484  VAL487 

> <Gold.Protein.RotatedAtoms>
   36.3954   34.6828   41.6946 H   0  0  0  0  0  0  0  0  0  0  0  0  # atno 496  bound_to 491 

> <Gold.Score>
     Score     S(PLP)   S(hbond)     S(cho)   S(metal)  DE(clash)   DE(tors)     intcor
     41.78     -34.30       2.00       1.00       0.00       0.00       0.76       0.00

> <Gold.PLP.Fitness>
41.7762

> <Gold.PLP.PLP>
-34.3002

> <Gold.PLP.part.hbond>
-1.0000

> <Gold.PLP.part.metal>
0.0000

> <Gold.PLP.part.buried>
-2.2506

> <Gold.PLP.part.nonpolar>
-31.5835

> <Gold.PLP.part.repulsive>
0.1220

> <Gold.PLP.ligand.clash>
0.0000

> <Gold.PLP.ligand.torsion>
0.7620

> <Gold.PLP.Chemscore.Hbond>
2.0000

> <Gold.PLP.Chemscore.CHOScore>
1.0000

> <Gold.PLP.Chemscore.Metal>
0.0000

> <Gold.Chemscore.Hbonds>
donor molecule, donor type, donor heavy atom, donor atom, acceptor molecule, acceptor atom, score
      L1  H     2    23       P1   582  2.00
      L1  C     5    17       P1   470  1.00

> <Gold.PLP.Chemscore.Internal.Correction>
0.0001

