#       Name:                EN300-109345_i001
#       Creating user name   aseyller
#       Creation time:       Fri Apr 21 12:23:20 2023


#       File generated by GOLD software.
#

@<TRIPOS>MOLECULE
EN300-109345_i001|amine_1|mol2|39|dock8
    23    23     1
SMALL
USER_CHARGES


@<TRIPOS>ATOM
      1 C1          26.0482  36.9901  41.1281 C.3            1 <1>                0.0000
      2 N2          26.8842  35.9291  41.7055 N.4            1 <1>                1.0000
      3 C3          28.2742  36.3956  41.7958 C.3            1 <1>                0.0000
      4 C4          28.9235  36.3054  40.4388 C.2            1 <1>                0.0000
      5 C5          28.9653  35.1721  39.6202 C.2            1 <1>                0.0000
      6 N6          29.6122  35.4820  38.5260 N.2            1 <1>                0.0000
      7 N7          30.0032  36.8242  38.6139 N.pl3          1 <1>                0.0000
      8 C8          30.7517  37.5720  37.6006 C.3            1 <1>                0.0000
      9 C9          29.9994  38.7812  37.2279 C.1            1 <1>                0.0000
     10 C10         29.3996  39.7456  36.9308 C.1            1 <1>                0.0000
     11 C11         29.5640  37.3083  39.7944 C.2            1 <1>                0.0000
     12 H12         26.4134  37.2387  40.1317 H              1 <1>                0.0000
     13 H13         25.0167  36.6440  41.0612 H              1 <1>                0.0000
     14 H14         26.0940  37.8749  41.7631 H              1 <1>                0.0000
     15 H15         28.2887  37.4306  42.1374 H              1 <1>                0.0000
     16 H16         28.8216  35.7720  42.5027 H              1 <1>                0.0000
     17 H17         28.5376  34.2077  39.8515 H              1 <1>                0.0000
     18 H18         31.7229  37.8584  38.0041 H              1 <1>                0.0000
     19 H19         30.8944  36.9468  36.7193 H              1 <1>                0.0000
     20 H20         28.8630  40.6081  36.6649 H              1 <1>                0.0000
     21 H21         29.7043  38.3140  40.1621 H              1 <1>                0.0000
     22 H22         26.5461  35.6991  42.6280 H              1 <1>                0.0000
     23 H23         26.8418  35.1102  41.1179 H              1 <1>                0.0000
@<TRIPOS>BOND
    1    1    2 1     
    2    1   12 1     
    3    1   13 1     
    4    1   14 1     
    5    2    3 1     
    6    2   22 1     
    7    2   23 1     
    8    3    4 1     
    9    3   15 1     
   10    3   16 1     
   11    4    5 1     
   12    4   11 2     
   13    5    6 2     
   14    5   17 1     
   15    6    7 1     
   16    7    8 1     
   17    7   11 1     
   18    8    9 1     
   19    8   18 1     
   20    8   19 1     
   21    9   10 3     
   22   10   20 1     
   23   11   21 1     
@<TRIPOS>SUBSTRUCTURE
      1 ****           1
@<TRIPOS>SET
DONOR_HYDROGENS      STATIC     ATOMS    <user>   **** ""
2 22 23
ATOM$RED        STATIC     ATOMS    COLORGROUP SYSTEM
2 22 23
@<TRIPOS>COMMENT
> <Gold.Version>
2022.2.0

> <Gold.Id.Protein>
1qkm|1qkm_protein|mol2

> <Gold.Protein.RotatedTorsions>
[  496  491  490  487 ] final   88.36 input  -89.99 | X-H torsion

> <Gold.Protein.ActiveResidues>
 MET295  LEU298  THR299  LEU301  ALA302  GLU305  TRP335  MET336  LEU339  MET340 
 GLY342  LEU343  ARG346  PHE356  ILE373  ILE376  PHE377  LEU380  LYS471  GLY472 
 MET473  HIS475  LEU476  LEU477  ASN478  MET479  VAL484  VAL487 

> <Gold.Protein.RotatedAtoms>
   36.8051   33.0330   42.0436 H   0  0  0  0  0  0  0  0  0  0  0  0  # atno 496  bound_to 491 

> <Gold.Score>
     Score     S(PLP)   S(hbond)     S(cho)   S(metal)  DE(clash)   DE(tors)     intcor
     45.49     -39.79       2.00       0.00       0.00       0.00       0.15       0.00

> <Gold.PLP.Fitness>
45.4881

> <Gold.PLP.PLP>
-39.7918

> <Gold.PLP.part.hbond>
-1.0000

> <Gold.PLP.part.metal>
0.0000

> <Gold.PLP.part.buried>
-3.4133

> <Gold.PLP.part.nonpolar>
-35.5571

> <Gold.PLP.part.repulsive>
0.0856

> <Gold.PLP.ligand.clash>
0.0000

> <Gold.PLP.ligand.torsion>
0.1519

> <Gold.PLP.Chemscore.Hbond>
2.0000

> <Gold.PLP.Chemscore.CHOScore>
0.0000

> <Gold.PLP.Chemscore.Metal>
0.0000

> <Gold.Chemscore.Hbonds>
donor molecule, donor type, donor heavy atom, donor atom, acceptor molecule, acceptor atom, score
      L1  H     2    22       P1   582  2.00

> <Gold.PLP.Chemscore.Internal.Correction>
0.0001

