#       Name:                EN300-109345_i001
#       Creating user name   aseyller
#       Creation time:       Fri Apr 21 12:23:23 2023


#       File generated by GOLD software.
#

@<TRIPOS>MOLECULE
EN300-109345_i001|amine_1|mol2|39|dock13
    23    23     1
SMALL
USER_CHARGES


@<TRIPOS>ATOM
      1 C1          31.7394  34.1652  38.2162 C.3            1 <1>                0.0000
      2 N2          32.3373  35.5014  38.3389 N.4            1 <1>                1.0000
      3 C3          31.4815  36.4848  37.6619 C.3            1 <1>                0.0000
      4 C4          30.1971  36.6482  38.4331 C.2            1 <1>                0.0000
      5 C5          29.0469  37.3066  37.9861 C.2            1 <1>                0.0000
      6 N6          28.1442  37.2395  38.9308 N.2            1 <1>                0.0000
      7 N7          28.6923  36.5352  40.0105 N.pl3          1 <1>                0.0000
      8 C8          28.0168  36.2338  41.2751 C.3            1 <1>                0.0000
      9 C9          26.6206  36.6952  41.2076 C.1            1 <1>                0.0000
     10 C10         25.5071  37.0632  41.1536 C.1            1 <1>                0.0000
     11 C11         29.9507  36.1787  39.6781 C.2            1 <1>                0.0000
     12 H12         31.6486  33.9031  37.1622 H              1 <1>                0.0000
     13 H13         32.3744  33.4354  38.7186 H              1 <1>                0.0000
     14 H14         30.7515  34.1654  38.6771 H              1 <1>                0.0000
     15 H15         31.9989  37.4427  37.6109 H              1 <1>                0.0000
     16 H16         31.2579  36.1384  36.6529 H              1 <1>                0.0000
     17 H17         28.9250  37.7876  37.0267 H              1 <1>                0.0000
     18 H18         28.0359  35.1581  41.4498 H              1 <1>                0.0000
     19 H19         28.5289  36.7437  42.0911 H              1 <1>                0.0000
     20 H20         24.5111  37.3922  41.1055 H              1 <1>                0.0000
     21 H21         30.6400  35.6240  40.2974 H              1 <1>                0.0000
     22 H22         32.4214  35.7439  39.3147 H              1 <1>                0.0000
     23 H23         33.2517  35.5012  37.9125 H              1 <1>                0.0000
@<TRIPOS>BOND
    1    1    2 1     
    2    1   12 1     
    3    1   13 1     
    4    1   14 1     
    5    2    3 1     
    6    2   22 1     
    7    2   23 1     
    8    3    4 1     
    9    3   15 1     
   10    3   16 1     
   11    4    5 1     
   12    4   11 2     
   13    5    6 2     
   14    5   17 1     
   15    6    7 1     
   16    7    8 1     
   17    7   11 1     
   18    8    9 1     
   19    8   18 1     
   20    8   19 1     
   21    9   10 3     
   22   10   20 1     
   23   11   21 1     
@<TRIPOS>SUBSTRUCTURE
      1 ****           1
@<TRIPOS>SET
DONOR_HYDROGENS      STATIC     ATOMS    <user>   **** ""
2 22 23
ATOM$RED        STATIC     ATOMS    COLORGROUP SYSTEM
2 22 23
@<TRIPOS>COMMENT
> <Gold.Version>
2022.2.0

> <Gold.Id.Protein>
1qkm|1qkm_protein|mol2

> <Gold.Protein.RotatedTorsions>
[  496  491  490  487 ] final  -24.02 input  -89.99 | X-H torsion

> <Gold.Protein.ActiveResidues>
 MET295  LEU298  THR299  LEU301  ALA302  GLU305  TRP335  MET336  LEU339  MET340 
 GLY342  LEU343  ARG346  PHE356  ILE373  ILE376  PHE377  LEU380  LYS471  GLY472 
 MET473  HIS475  LEU476  LEU477  ASN478  MET479  VAL484  VAL487 

> <Gold.Protein.RotatedAtoms>
   36.2927   34.5131   41.9845 H   0  0  0  0  0  0  0  0  0  0  0  0  # atno 496  bound_to 491 

> <Gold.Score>
     Score     S(PLP)   S(hbond)     S(cho)   S(metal)  DE(clash)   DE(tors)     intcor
     42.65     -39.99       0.00       1.00       0.00       0.00       0.17       0.00

> <Gold.PLP.Fitness>
42.6463

> <Gold.PLP.PLP>
-39.9880

> <Gold.PLP.part.hbond>
0.0000

> <Gold.PLP.part.metal>
0.0000

> <Gold.PLP.part.buried>
-1.6608

> <Gold.PLP.part.nonpolar>
-38.6701

> <Gold.PLP.part.repulsive>
0.0642

> <Gold.PLP.ligand.clash>
0.0000

> <Gold.PLP.ligand.torsion>
0.1709

> <Gold.PLP.Chemscore.Hbond>
0.0000

> <Gold.PLP.Chemscore.CHOScore>
1.0000

> <Gold.PLP.Chemscore.Metal>
0.0000

> <Gold.Chemscore.Hbonds>
donor molecule, donor type, donor heavy atom, donor atom, acceptor molecule, acceptor atom, score
      L1  C    11    21       P1   470  1.00

> <Gold.PLP.Chemscore.Internal.Correction>
0.0001

