#       Name:                plp ligand
#       Creating user name   aseyller
#       Creation time:       Fri Apr 21 12:23:15 2023


#       File generated by GOLD software.
#

@<TRIPOS>MOLECULE
plp ligand
    23    23     1
SMALL
USER_CHARGES


@<TRIPOS>ATOM
      1 C1           3.7194  -0.7501   0.2081 NONPOLAR       1 <1>                0.0000
      2 N2           2.2688  -0.6224   0.4016 DONOR          1 <1>                1.0000
      3 C3           1.7846   0.5737  -0.3003 NONPOLAR       1 <1>                0.0000
      4 C4           0.2965   0.7047  -0.1018 NONPOLAR       1 <1>                0.0000
      5 C5          -0.3377   1.3947   0.9365 NONPOLAR       1 <1>                0.0000
      6 N6          -1.6308   1.2842   0.7707 ACCEPTOR       1 <1>                0.0000
      7 N7          -1.8607   0.5193  -0.3800 NONPOLAR       1 <1>                0.0000
      8 C8          -3.1708   0.1560  -0.9260 NONPOLAR       1 <1>                0.0000
      9 C9          -3.9654  -0.5189   0.1132 NONPOLAR       1 <1>                0.0000
     10 C10         -4.5991  -1.0573   0.9419 NONPOLAR       1 <1>                0.0000
     11 C11         -0.6624   0.1805  -0.8999 NONPOLAR       1 <1>                0.0000
     12 H12          4.2184   0.1326   0.6079                1 <1>                0.0000
     13 H13          4.0787  -1.6377   0.7289                1 <1>                0.0000
     14 H14          3.9375  -0.8401  -0.8561                1 <1>                0.0000
     15 H15          2.2835   1.4565   0.0995                1 <1>                0.0000
     16 H16          2.0027   0.4838  -1.3645                1 <1>                0.0000
     17 H17          0.1550   1.9266   1.7370                1 <1>                0.0000
     18 H18         -3.6905   1.0566  -1.2531                1 <1>                0.0000
     19 H19         -3.0374  -0.5150  -1.7745                1 <1>                0.0000
     20 H20         -5.1659  -1.5387   1.6832                1 <1>                0.0000
     21 H21         -0.4980  -0.4091  -1.7897                1 <1>                0.0000
     22 H22          1.8069  -1.4396   0.0315                1 <1>                0.0000
     23 H23          2.0669  -0.5392   1.3866                1 <1>                0.0000
@<TRIPOS>BOND
    1    1    2 1     
    2    1   12 1     
    3    1   13 1     
    4    1   14 1     
    5    2    3 1     
    6    2   22 1     
    7    2   23 1     
    8    3    4 1     
    9    3   15 1     
   10    3   16 1     
   11    4    5 1     
   12    4   11 2     
   13    5    6 2     
   14    5   17 1     
   15    6    7 1     
   16    7    8 1     
   17    7   11 1     
   18    8    9 1     
   19    8   18 1     
   20    8   19 1     
   21    9   10 3     
   22   10   20 1     
   23   11   21 1     
@<TRIPOS>SUBSTRUCTURE
      1 ****           1
@<TRIPOS>SET
DONOR_HYDROGENS      STATIC     ATOMS    <user>   **** ""
2 22 23
ATOM$RED        STATIC     ATOMS    COLORGROUP SYSTEM
2 22 23
