#       Name:                EN300-393391_i001
#       Creating user name   aseyller
#       Creation time:       Fri Apr 21 12:43:58 2023


#       File generated by GOLD software.
#

@<TRIPOS>MOLECULE
EN300-393391_i001|amine_3|mol2|99|dock4
    24    24     1
SMALL
USER_CHARGES


@<TRIPOS>ATOM
      1 C1          31.1811  37.7683  35.0974 C.3            1 <1>                0.0000
      2 O2          30.5135  37.0735  36.1836 O.3            1 <1>                0.0000
      3 C3          29.5349  37.7407  36.8268 C.2            1 <1>                0.0000
      4 O4          29.2103  38.8511  36.4544 O.2            1 <1>                0.0000
      5 C5          28.8592  37.1243  37.9808 C.ar           1 <1>                0.0000
      6 C6          27.4936  37.3384  38.1926 C.ar           1 <1>                0.0000
      7 C7          26.8658  36.7555  39.2784 C.ar           1 <1>                0.0000
      8 N8          25.4984  36.9694  39.4913 N.pl3          1 <1>                0.0000
      9 C9          27.5886  35.9567  40.1602 C.ar           1 <1>                0.0000
     10 C10         28.9354  35.7397  39.9605 C.ar           1 <1>                0.0000
     11 C11         29.5810  36.3135  38.8713 C.ar           1 <1>                0.0000
     12 S12         31.3021  36.0352  38.6167 S.3            1 <1>                0.0000
     13 C13         31.4103  34.2283  38.4986 C.3            1 <1>                0.0000
     14 H14         31.9449  37.1206  34.6668 H              1 <1>                0.0000
     15 H15         30.4519  38.0296  34.3306 H              1 <1>                0.0000
     16 H16         31.6479  38.6762  35.4793 H              1 <1>                0.0000
     17 H17         26.9305  37.9577  37.5100 H              1 <1>                0.0000
     18 H18         27.0915  35.5047  41.0057 H              1 <1>                0.0000
     19 H19         29.4891  35.1193  40.6496 H              1 <1>                0.0000
     20 H20         31.0460  33.7813  39.4235 H              1 <1>                0.0000
     21 H21         30.8018  33.8818  37.6633 H              1 <1>                0.0000
     22 H22         32.4481  33.9362  38.3379 H              1 <1>                0.0000
     23 H23         24.9932  37.5255  38.8778 H              1 <1>                0.0000
     24 H24         25.0566  36.5614  40.2522 H              1 <1>                0.0000
@<TRIPOS>BOND
    1    1    2 1     
    2    1   14 1     
    3    1   15 1     
    4    1   16 1     
    5    2    3 1     
    6    3    4 2     
    7    3    5 1     
    8    5    6 ar    
    9    5   11 ar    
   10    6    7 ar    
   11    6   17 1     
   12    7    8 1     
   13    7    9 ar    
   14    8   23 1     
   15    8   24 1     
   16    9   10 ar    
   17    9   18 1     
   18   10   11 ar    
   19   10   19 1     
   20   11   12 1     
   21   12   13 1     
   22   13   20 1     
   23   13   21 1     
   24   13   22 1     
@<TRIPOS>SUBSTRUCTURE
      1 ****           1
@<TRIPOS>SET
DONOR_HYDROGENS      STATIC     ATOMS    <user>   **** ""
2 23 24
ATOM$RED        STATIC     ATOMS    COLORGROUP SYSTEM
2 23 24
@<TRIPOS>COMMENT
> <Gold.Version>
2022.2.0

> <Gold.Id.Protein>
1qkm|1qkm_protein|mol2

> <Gold.Protein.RotatedTorsions>
[  496  491  490  487 ] final  176.44 input  -89.99 | X-H torsion

> <Gold.Protein.ActiveResidues>
 MET295  LEU298  THR299  LEU301  ALA302  GLU305  TRP335  MET336  LEU339  MET340 
 GLY342  LEU343  ARG346  PHE356  ILE373  ILE376  PHE377  LEU380  LYS471  GLY472 
 MET473  HIS475  LEU476  LEU477  ASN478  MET479  VAL484  VAL487 

> <Gold.Protein.RotatedAtoms>
   37.3188   33.4117   40.8981 H   0  0  0  0  0  0  0  0  0  0  0  0  # atno 496  bound_to 491 

> <Gold.Score>
     Score     S(PLP)   S(hbond)     S(cho)   S(metal)  DE(clash)   DE(tors)     intcor
     40.96     -41.03       0.00       0.00       0.00       0.00       0.53       0.99

> <Gold.PLP.Fitness>
40.9640

> <Gold.PLP.PLP>
-41.0326

> <Gold.PLP.part.hbond>
-0.5803

> <Gold.PLP.part.metal>
0.0000

> <Gold.PLP.part.buried>
-4.1564

> <Gold.PLP.part.nonpolar>
-36.4586

> <Gold.PLP.part.repulsive>
0.0977

> <Gold.PLP.ligand.clash>
0.0000

> <Gold.PLP.ligand.torsion>
0.5294

> <Gold.PLP.Chemscore.Hbond>
0.0000

> <Gold.PLP.Chemscore.CHOScore>
0.0000

> <Gold.PLP.Chemscore.Metal>
0.0000

> <Gold.PLP.Chemscore.Internal.Correction>
0.9902

