#       Name:                EN300-393391_i001
#       Creating user name   aseyller
#       Creation time:       Fri Apr 21 12:44:06 2023


#       File generated by GOLD software.
#

@<TRIPOS>MOLECULE
EN300-393391_i001|amine_3|mol2|99|dock20
    24    24     1
SMALL
USER_CHARGES


@<TRIPOS>ATOM
      1 C1          32.5282  36.6825  36.9394 C.3            1 <1>                0.0000
      2 O2          31.5138  37.0822  37.8984 O.3            1 <1>                0.0000
      3 C3          30.8950  36.0980  38.5804 C.2            1 <1>                0.0000
      4 O4          31.4845  35.0633  38.8230 O.2            1 <1>                0.0000
      5 C5          29.5047  36.2765  39.0314 C.ar           1 <1>                0.0000
      6 C6          29.0884  35.7424  40.2548 C.ar           1 <1>                0.0000
      7 C7          27.7811  35.9147  40.6719 C.ar           1 <1>                0.0000
      8 N8          27.3633  35.3801  41.8969 N.pl3          1 <1>                0.0000
      9 C9          26.8792  36.6181  39.8783 C.ar           1 <1>                0.0000
     10 C10         27.2795  37.1483  38.6702 C.ar           1 <1>                0.0000
     11 C11         28.5911  36.9891  38.2383 C.ar           1 <1>                0.0000
     12 S12         29.1019  37.6675  36.6944 S.3            1 <1>                0.0000
     13 C13         28.9504  39.4549  36.9640 C.3            1 <1>                0.0000
     14 H14         32.9458  37.5689  36.4617 H              1 <1>                0.0000
     15 H15         33.3209  36.1396  37.4540 H              1 <1>                0.0000
     16 H16         32.0793  36.0393  36.1825 H              1 <1>                0.0000
     17 H17         29.7861  35.1963  40.8725 H              1 <1>                0.0000
     18 H18         25.8600  36.7488  40.2107 H              1 <1>                0.0000
     19 H19         26.5735  37.6920  38.0601 H              1 <1>                0.0000
     20 H20         27.9165  39.6993  37.2074 H              1 <1>                0.0000
     21 H21         29.5981  39.7543  37.7880 H              1 <1>                0.0000
     22 H22         29.2457  39.9852  36.0586 H              1 <1>                0.0000
     23 H23         27.9904  34.8900  42.4513 H              1 <1>                0.0000
     24 H24         26.4468  35.5000  42.1909 H              1 <1>                0.0000
@<TRIPOS>BOND
    1    1    2 1     
    2    1   14 1     
    3    1   15 1     
    4    1   16 1     
    5    2    3 1     
    6    3    4 2     
    7    3    5 1     
    8    5    6 ar    
    9    5   11 ar    
   10    6    7 ar    
   11    6   17 1     
   12    7    8 1     
   13    7    9 ar    
   14    8   23 1     
   15    8   24 1     
   16    9   10 ar    
   17    9   18 1     
   18   10   11 ar    
   19   10   19 1     
   20   11   12 1     
   21   12   13 1     
   22   13   20 1     
   23   13   21 1     
   24   13   22 1     
@<TRIPOS>SUBSTRUCTURE
      1 ****           1
@<TRIPOS>SET
DONOR_HYDROGENS      STATIC     ATOMS    <user>   **** ""
2 23 24
ATOM$RED        STATIC     ATOMS    COLORGROUP SYSTEM
2 23 24
@<TRIPOS>COMMENT
> <Gold.Version>
2022.2.0

> <Gold.Id.Protein>
1qkm|1qkm_protein|mol2

> <Gold.Protein.RotatedTorsions>
[  496  491  490  487 ] final  -86.38 input  -89.99 | X-H torsion

> <Gold.Protein.ActiveResidues>
 MET295  LEU298  THR299  LEU301  ALA302  GLU305  TRP335  MET336  LEU339  MET340 
 GLY342  LEU343  ARG346  PHE356  ILE373  ILE376  PHE377  LEU380  LYS471  GLY472 
 MET473  HIS475  LEU476  LEU477  ASN478  MET479  VAL484  VAL487 

> <Gold.Protein.RotatedAtoms>
   36.7240   34.6754   41.1234 H   0  0  0  0  0  0  0  0  0  0  0  0  # atno 496  bound_to 491 

> <Gold.Score>
     Score     S(PLP)   S(hbond)     S(cho)   S(metal)  DE(clash)   DE(tors)     intcor
     40.22     -40.29       0.26       0.00       0.00       0.00       0.91       0.99

> <Gold.PLP.Fitness>
40.2209

> <Gold.PLP.PLP>
-40.2905

> <Gold.PLP.part.hbond>
-0.6534

> <Gold.PLP.part.metal>
0.0000

> <Gold.PLP.part.buried>
-3.8985

> <Gold.PLP.part.nonpolar>
-35.8704

> <Gold.PLP.part.repulsive>
0.1679

> <Gold.PLP.ligand.clash>
0.0000

> <Gold.PLP.ligand.torsion>
0.9139

> <Gold.PLP.Chemscore.Hbond>
0.2560

> <Gold.PLP.Chemscore.CHOScore>
0.0000

> <Gold.PLP.Chemscore.Metal>
0.0000

> <Gold.Chemscore.Hbonds>
donor molecule, donor type, donor heavy atom, donor atom, acceptor molecule, acceptor atom, score
      L1  H     8    24       P1   582  0.26

> <Gold.PLP.Chemscore.Internal.Correction>
0.9902

