#       Name:                EN300-393391_i001
#       Creating user name   aseyller
#       Creation time:       Fri Apr 21 12:44:03 2023


#       File generated by GOLD software.
#

@<TRIPOS>MOLECULE
EN300-393391_i001|amine_3|mol2|99|dock15
    24    24     1
SMALL
USER_CHARGES


@<TRIPOS>ATOM
      1 C1          27.3868  37.9984  37.7503 C.3            1 <1>                0.0000
      2 O2          28.6124  37.7731  37.0051 O.3            1 <1>                0.0000
      3 C3          29.6725  37.3097  37.6964 C.2            1 <1>                0.0000
      4 O4          29.5934  37.1563  38.8995 O.2            1 <1>                0.0000
      5 C5          30.9264  36.9892  36.9942 C.ar           1 <1>                0.0000
      6 C6          31.3340  37.7555  35.8979 C.ar           1 <1>                0.0000
      7 C7          32.5133  37.4487  35.2438 C.ar           1 <1>                0.0000
      8 N8          32.9222  38.2156  34.1459 N.pl3          1 <1>                0.0000
      9 C9          33.2954  36.3801  35.6735 C.ar           1 <1>                0.0000
     10 C10         32.9023  35.6181  36.7531 C.ar           1 <1>                0.0000
     11 C11         31.7226  35.9160  37.4253 C.ar           1 <1>                0.0000
     12 S12         31.2212  34.9417  38.8052 S.3            1 <1>                0.0000
     13 C13         31.5835  33.2491  38.2629 C.3            1 <1>                0.0000
     14 H14         26.6149  38.3702  37.0764 H              1 <1>                0.0000
     15 H15         27.0569  37.0614  38.1989 H              1 <1>                0.0000
     16 H16         27.5684  38.7328  38.5350 H              1 <1>                0.0000
     17 H17         30.7290  38.5851  35.5625 H              1 <1>                0.0000
     18 H18         34.2152  36.1467  35.1580 H              1 <1>                0.0000
     19 H19         33.5143  34.7904  37.0797 H              1 <1>                0.0000
     20 H20         31.0114  33.0257  37.3625 H              1 <1>                0.0000
     21 H21         32.6483  33.1561  38.0492 H              1 <1>                0.0000
     22 H22         31.3086  32.5483  39.0512 H              1 <1>                0.0000
     23 H23         32.3786  38.9606  33.8452 H              1 <1>                0.0000
     24 H24         33.7490  38.0017  33.6860 H              1 <1>                0.0000
@<TRIPOS>BOND
    1    1    2 1     
    2    1   14 1     
    3    1   15 1     
    4    1   16 1     
    5    2    3 1     
    6    3    4 2     
    7    3    5 1     
    8    5    6 ar    
    9    5   11 ar    
   10    6    7 ar    
   11    6   17 1     
   12    7    8 1     
   13    7    9 ar    
   14    8   23 1     
   15    8   24 1     
   16    9   10 ar    
   17    9   18 1     
   18   10   11 ar    
   19   10   19 1     
   20   11   12 1     
   21   12   13 1     
   22   13   20 1     
   23   13   21 1     
   24   13   22 1     
@<TRIPOS>SUBSTRUCTURE
      1 ****           1
@<TRIPOS>SET
DONOR_HYDROGENS      STATIC     ATOMS    <user>   **** ""
2 23 24
ATOM$RED        STATIC     ATOMS    COLORGROUP SYSTEM
2 23 24
@<TRIPOS>COMMENT
> <Gold.Version>
2022.2.0

> <Gold.Id.Protein>
1qkm|1qkm_protein|mol2

> <Gold.Protein.RotatedTorsions>
[  496  491  490  487 ] final -127.71 input  -89.99 | X-H torsion

> <Gold.Protein.ActiveResidues>
 MET295  LEU298  THR299  LEU301  ALA302  GLU305  TRP335  MET336  LEU339  MET340 
 GLY342  LEU343  ARG346  PHE356  ILE373  ILE376  PHE377  LEU380  LYS471  GLY472 
 MET473  HIS475  LEU476  LEU477  ASN478  MET479  VAL484  VAL487 

> <Gold.Protein.RotatedAtoms>
   37.0875   34.2530   40.7594 H   0  0  0  0  0  0  0  0  0  0  0  0  # atno 496  bound_to 491 

> <Gold.Score>
     Score     S(PLP)   S(hbond)     S(cho)   S(metal)  DE(clash)   DE(tors)     intcor
     43.01     -40.51       1.00       0.00       0.00       0.00       0.74       0.99

> <Gold.PLP.Fitness>
43.0119

> <Gold.PLP.PLP>
-40.5089

> <Gold.PLP.part.hbond>
-1.0000

> <Gold.PLP.part.metal>
0.0000

> <Gold.PLP.part.buried>
-3.7512

> <Gold.PLP.part.nonpolar>
-36.5113

> <Gold.PLP.part.repulsive>
0.0849

> <Gold.PLP.ligand.clash>
0.0000

> <Gold.PLP.ligand.torsion>
0.7436

> <Gold.PLP.Chemscore.Hbond>
1.0000

> <Gold.PLP.Chemscore.CHOScore>
0.0000

> <Gold.PLP.Chemscore.Metal>
0.0000

> <Gold.Chemscore.Hbonds>
donor molecule, donor type, donor heavy atom, donor atom, acceptor molecule, acceptor atom, score
      L1  H     8    24       P1  3229  1.00

> <Gold.PLP.Chemscore.Internal.Correction>
0.9902

