#       Name:                EN300-393391_i001
#       Creating user name   aseyller
#       Creation time:       Fri Apr 21 12:43:56 2023


#       File generated by GOLD software.
#

@<TRIPOS>MOLECULE
EN300-393391_i001
    24    24     1
SMALL
USER_CHARGES


@<TRIPOS>ATOM
      1 C1           4.0426   1.0046  -0.0008 C.3            1 <1>                0.0000
      2 O2           2.6061   1.2160  -0.0007 O.3            1 <1>                0.0000
      3 C3           1.8259   0.1170   0.0000 C.2            1 <1>                0.0000
      4 O4           2.3324  -0.9878   0.0005 O.2            1 <1>                0.0000
      5 C5           0.3599   0.2548   0.0002 C.ar           1 <1>                0.0000
      6 C6          -0.2270   1.5240  -0.0004 C.ar           1 <1>                0.0000
      7 C7          -1.6047   1.6453  -0.0008 C.ar           1 <1>                0.0000
      8 N8          -2.1933   2.9159  -0.0014 N.pl3          1 <1>                0.0000
      9 C9          -2.4083   0.5085  -0.0010 C.ar           1 <1>                0.0000
     10 C10         -1.8396  -0.7474   0.0000 C.ar           1 <1>                0.0000
     11 C11         -0.4566  -0.8875  -0.0050 C.ar           1 <1>                0.0000
     12 S12          0.2693  -2.4930  -0.0042 S.3            1 <1>                0.0000
     13 C13         -1.1731  -3.5930   0.0038 C.3            1 <1>                0.0000
     14 H14          4.5517   1.9685  -0.0014 H              1 <1>                0.0000
     15 H15          4.3274   0.4439   0.8894 H              1 <1>                0.0000
     16 H16          4.3272   0.4429  -0.8905 H              1 <1>                0.0000
     17 H17          0.3942   2.4076  -0.0003 H              1 <1>                0.0000
     18 H18         -3.4834   0.6111  -0.0016 H              1 <1>                0.0000
     19 H19         -2.4700  -1.6243   0.0006 H              1 <1>                0.0000
     20 H20         -1.7701  -3.4028   0.8956 H              1 <1>                0.0000
     21 H21         -1.7770  -3.4067  -0.8843 H              1 <1>                0.0000
     22 H22         -0.8388  -4.6305   0.0048 H              1 <1>                0.0000
     23 H23         -1.6349   3.7091  -0.0015 H              1 <1>                0.0000
     24 H24         -3.1593   3.0028  -0.0016 H              1 <1>                0.0000
@<TRIPOS>BOND
    1    1    2 1     
    2    1   14 1     
    3    1   15 1     
    4    1   16 1     
    5    2    3 1     
    6    3    4 2     
    7    3    5 1     
    8    5    6 ar    
    9    5   11 ar    
   10    6    7 ar    
   11    6   17 1     
   12    7    8 1     
   13    7    9 ar    
   14    8   23 1     
   15    8   24 1     
   16    9   10 ar    
   17    9   18 1     
   18   10   11 ar    
   19   10   19 1     
   20   11   12 1     
   21   12   13 1     
   22   13   20 1     
   23   13   21 1     
   24   13   22 1     
@<TRIPOS>SUBSTRUCTURE
      1 ****           1
@<TRIPOS>SET
DONOR_HYDROGENS      STATIC     ATOMS    <user>   **** ""
2 23 24
ATOM$RED        STATIC     ATOMS    COLORGROUP SYSTEM
2 23 24
