#       Name:                EN300-393391_i001
#       Creating user name   aseyller
#       Creation time:       Fri Apr 21 12:44:04 2023


#       File generated by GOLD software.
#

@<TRIPOS>MOLECULE
EN300-393391_i001|amine_3|mol2|99|dock17
    24    24     1
SMALL
USER_CHARGES


@<TRIPOS>ATOM
      1 C1          31.2062  37.1388  35.5717 C.3            1 <1>                0.0000
      2 O2          29.9729  37.0588  36.3337 O.3            1 <1>                0.0000
      3 C3          30.0863  36.9621  37.6732 C.2            1 <1>                0.0000
      4 O4          31.1857  36.9603  38.1913 O.2            1 <1>                0.0000
      5 C5          28.8784  36.8586  38.5089 C.ar           1 <1>                0.0000
      6 C6          28.8887  36.0723  39.6652 C.ar           1 <1>                0.0000
      7 C7          27.7504  35.9806  40.4453 C.ar           1 <1>                0.0000
      8 N8          27.7597  35.1935  41.6034 N.pl3          1 <1>                0.0000
      9 C9          26.5954  36.6683  40.0833 C.ar           1 <1>                0.0000
     10 C10         26.5747  37.4458  38.9449 C.ar           1 <1>                0.0000
     11 C11         27.7116  37.5535  38.1523 C.ar           1 <1>                0.0000
     12 S12         27.6843  38.5477  36.6979 S.3            1 <1>                0.0000
     13 C13         29.0552  39.7044  36.9687 C.3            1 <1>                0.0000
     14 H14         30.9729  37.2128  34.5095 H              1 <1>                0.0000
     15 H15         31.7687  38.0193  35.8823 H              1 <1>                0.0000
     16 H16         31.8029  36.2445  35.7512 H              1 <1>                0.0000
     17 H17         29.7835  35.5378  39.9483 H              1 <1>                0.0000
     18 H18         25.7104  36.5920  40.6976 H              1 <1>                0.0000
     19 H19         25.6744  37.9756  38.6706 H              1 <1>                0.0000
     20 H20         28.8699  40.2818  37.8743 H              1 <1>                0.0000
     21 H21         29.9853  39.1465  37.0774 H              1 <1>                0.0000
     22 H22         29.1342  40.3800  36.1169 H              1 <1>                0.0000
     23 H23         28.5637  34.7138  41.8573 H              1 <1>                0.0000
     24 H24         26.9623  35.1280  42.1516 H              1 <1>                0.0000
@<TRIPOS>BOND
    1    1    2 1     
    2    1   14 1     
    3    1   15 1     
    4    1   16 1     
    5    2    3 1     
    6    3    4 2     
    7    3    5 1     
    8    5    6 ar    
    9    5   11 ar    
   10    6    7 ar    
   11    6   17 1     
   12    7    8 1     
   13    7    9 ar    
   14    8   23 1     
   15    8   24 1     
   16    9   10 ar    
   17    9   18 1     
   18   10   11 ar    
   19   10   19 1     
   20   11   12 1     
   21   12   13 1     
   22   13   20 1     
   23   13   21 1     
   24   13   22 1     
@<TRIPOS>SUBSTRUCTURE
      1 ****           1
@<TRIPOS>SET
DONOR_HYDROGENS      STATIC     ATOMS    <user>   **** ""
2 23 24
ATOM$RED        STATIC     ATOMS    COLORGROUP SYSTEM
2 23 24
@<TRIPOS>COMMENT
> <Gold.Version>
2022.2.0

> <Gold.Id.Protein>
1qkm|1qkm_protein|mol2

> <Gold.Protein.RotatedTorsions>
[  496  491  490  487 ] final -125.83 input  -89.99 | X-H torsion

> <Gold.Protein.ActiveResidues>
 MET295  LEU298  THR299  LEU301  ALA302  GLU305  TRP335  MET336  LEU339  MET340 
 GLY342  LEU343  ARG346  PHE356  ILE373  ILE376  PHE377  LEU380  LYS471  GLY472 
 MET473  HIS475  LEU476  LEU477  ASN478  MET479  VAL484  VAL487 

> <Gold.Protein.RotatedAtoms>
   37.0730   34.2789   40.7681 H   0  0  0  0  0  0  0  0  0  0  0  0  # atno 496  bound_to 491 

> <Gold.Score>
     Score     S(PLP)   S(hbond)     S(cho)   S(metal)  DE(clash)   DE(tors)     intcor
     39.97     -37.01       1.00       0.00       0.00       0.00       0.52       0.99

> <Gold.PLP.Fitness>
39.9710

> <Gold.PLP.PLP>
-37.0119

> <Gold.PLP.part.hbond>
-1.0000

> <Gold.PLP.part.metal>
0.0000

> <Gold.PLP.part.buried>
-2.9620

> <Gold.PLP.part.nonpolar>
-32.6822

> <Gold.PLP.part.repulsive>
0.1035

> <Gold.PLP.ligand.clash>
0.0000

> <Gold.PLP.ligand.torsion>
0.5155

> <Gold.PLP.Chemscore.Hbond>
1.0000

> <Gold.PLP.Chemscore.CHOScore>
0.0000

> <Gold.PLP.Chemscore.Metal>
0.0000

> <Gold.Chemscore.Hbonds>
donor molecule, donor type, donor heavy atom, donor atom, acceptor molecule, acceptor atom, score
      L1  H     8    24       P1   582  1.00

> <Gold.PLP.Chemscore.Internal.Correction>
0.9902

