#       Name:                EN300-393391_i001
#       Creating user name   aseyller
#       Creation time:       Fri Apr 21 12:44:00 2023


#       File generated by GOLD software.
#

@<TRIPOS>MOLECULE
EN300-393391_i001|amine_3|mol2|99|dock8
    24    24     1
SMALL
USER_CHARGES


@<TRIPOS>ATOM
      1 C1          29.8121  39.6314  36.7705 C.3            1 <1>                0.0000
      2 O2          29.7260  38.5226  37.7039 O.3            1 <1>                0.0000
      3 C3          28.5083  37.9780  37.8965 C.2            1 <1>                0.0000
      4 O4          27.5878  38.2718  37.1594 O.2            1 <1>                0.0000
      5 C5          28.2932  37.0271  39.0000 C.ar           1 <1>                0.0000
      6 C6          27.0718  37.0043  39.6804 C.ar           1 <1>                0.0000
      7 C7          26.8771  36.1079  40.7154 C.ar           1 <1>                0.0000
      8 N8          25.6543  36.0843  41.3974 N.pl3          1 <1>                0.0000
      9 C9          27.8925  35.2286  41.0813 C.ar           1 <1>                0.0000
     10 C10         29.1005  35.2432  40.4171 C.ar           1 <1>                0.0000
     11 C11         29.3112  36.1341  39.3710 C.ar           1 <1>                0.0000
     12 S12         30.8553  36.1518  38.5224 S.3            1 <1>                0.0000
     13 C13         31.4891  34.4738  38.7933 C.3            1 <1>                0.0000
     14 H14         30.8448  39.9751  36.7087 H              1 <1>                0.0000
     15 H15         29.4786  39.3042  35.7858 H              1 <1>                0.0000
     16 H16         29.1777  40.4476  37.1163 H              1 <1>                0.0000
     17 H17         26.2823  37.6854  39.3985 H              1 <1>                0.0000
     18 H18         27.7330  34.5311  41.8904 H              1 <1>                0.0000
     19 H19         29.8834  34.5583  40.7075 H              1 <1>                0.0000
     20 H20         31.6009  34.2960  39.8628 H              1 <1>                0.0000
     21 H21         30.7898  33.7495  38.3757 H              1 <1>                0.0000
     22 H22         32.4574  34.3678  38.3042 H              1 <1>                0.0000
     23 H23         24.9456  36.6961  41.1437 H              1 <1>                0.0000
     24 H24         25.5161  35.4563  42.1235 H              1 <1>                0.0000
@<TRIPOS>BOND
    1    1    2 1     
    2    1   14 1     
    3    1   15 1     
    4    1   16 1     
    5    2    3 1     
    6    3    4 2     
    7    3    5 1     
    8    5    6 ar    
    9    5   11 ar    
   10    6    7 ar    
   11    6   17 1     
   12    7    8 1     
   13    7    9 ar    
   14    8   23 1     
   15    8   24 1     
   16    9   10 ar    
   17    9   18 1     
   18   10   11 ar    
   19   10   19 1     
   20   11   12 1     
   21   12   13 1     
   22   13   20 1     
   23   13   21 1     
   24   13   22 1     
@<TRIPOS>SUBSTRUCTURE
      1 ****           1
@<TRIPOS>SET
DONOR_HYDROGENS      STATIC     ATOMS    <user>   **** ""
2 23 24
ATOM$RED        STATIC     ATOMS    COLORGROUP SYSTEM
2 23 24
@<TRIPOS>COMMENT
> <Gold.Version>
2022.2.0

> <Gold.Id.Protein>
1qkm|1qkm_protein|mol2

> <Gold.Protein.RotatedTorsions>
[  496  491  490  487 ] final   83.70 input  -89.99 | X-H torsion

> <Gold.Protein.ActiveResidues>
 MET295  LEU298  THR299  LEU301  ALA302  GLU305  TRP335  MET336  LEU339  MET340 
 GLY342  LEU343  ARG346  PHE356  ILE373  ILE376  PHE377  LEU380  LYS471  GLY472 
 MET473  HIS475  LEU476  LEU477  ASN478  MET479  VAL484  VAL487 

> <Gold.Protein.RotatedAtoms>
   36.7620   33.0681   42.0964 H   0  0  0  0  0  0  0  0  0  0  0  0  # atno 496  bound_to 491 

> <Gold.Score>
     Score     S(PLP)   S(hbond)     S(cho)   S(metal)  DE(clash)   DE(tors)     intcor
     41.22     -39.15       1.00       0.00       0.00       0.00       0.96       0.99

> <Gold.PLP.Fitness>
41.2198

> <Gold.PLP.PLP>
-39.1458

> <Gold.PLP.part.hbond>
-1.0000

> <Gold.PLP.part.metal>
0.0000

> <Gold.PLP.part.buried>
-3.0444

> <Gold.PLP.part.nonpolar>
-35.9415

> <Gold.PLP.part.repulsive>
0.0837

> <Gold.PLP.ligand.clash>
0.0000

> <Gold.PLP.ligand.torsion>
0.9581

> <Gold.PLP.Chemscore.Hbond>
1.0000

> <Gold.PLP.Chemscore.CHOScore>
0.0000

> <Gold.PLP.Chemscore.Metal>
0.0000

> <Gold.Chemscore.Hbonds>
donor molecule, donor type, donor heavy atom, donor atom, acceptor molecule, acceptor atom, score
      L1  H     8    24       P1   582  1.00

> <Gold.PLP.Chemscore.Internal.Correction>
0.9902

