#       Name:                EN300-393391_i001
#       Creating user name   aseyller
#       Creation time:       Fri Apr 21 12:44:00 2023


#       File generated by GOLD software.
#

@<TRIPOS>MOLECULE
EN300-393391_i001|amine_3|mol2|99|dock9
    24    24     1
SMALL
USER_CHARGES


@<TRIPOS>ATOM
      1 C1          32.3103  36.0960  38.0628 C.3            1 <1>                0.0000
      2 O2          31.0186  36.6995  38.3370 O.3            1 <1>                0.0000
      3 C3          30.0691  35.9004  38.8629 C.2            1 <1>                0.0000
      4 O4          30.3461  34.7643  39.1941 O.2            1 <1>                0.0000
      5 C5          28.6963  36.4038  39.0362 C.ar           1 <1>                0.0000
      6 C6          27.9324  35.9990  40.1353 C.ar           1 <1>                0.0000
      7 C7          26.6439  36.4766  40.2915 C.ar           1 <1>                0.0000
      8 N8          25.8783  36.0717  41.3918 N.pl3          1 <1>                0.0000
      9 C9          26.1056  37.3587  39.3587 C.ar           1 <1>                0.0000
     10 C10         26.8502  37.7637  38.2713 C.ar           1 <1>                0.0000
     11 C11         28.1488  37.2976  38.1018 C.ar           1 <1>                0.0000
     12 S12         29.0998  37.8161  36.7121 S.3            1 <1>                0.0000
     13 C13         29.2440  39.6070  36.9616 C.3            1 <1>                0.0000
     14 H14         32.9803  36.8465  37.6430 H              1 <1>                0.0000
     15 H15         32.7342  35.7081  38.9890 H              1 <1>                0.0000
     16 H16         32.1865  35.2805  37.3503 H              1 <1>                0.0000
     17 H17         28.3477  35.3147  40.8605 H              1 <1>                0.0000
     18 H18         25.0988  37.7277  39.4875 H              1 <1>                0.0000
     19 H19         26.4250  38.4477  37.5518 H              1 <1>                0.0000
     20 H20         28.2495  40.0527  36.9784 H              1 <1>                0.0000
     21 H21         29.7459  39.8026  37.9092 H              1 <1>                0.0000
     22 H22         29.8233  40.0419  36.1470 H              1 <1>                0.0000
     23 H23         26.2519  35.4573  42.0429 H              1 <1>                0.0000
     24 H24         24.9745  36.4057  41.5029 H              1 <1>                0.0000
@<TRIPOS>BOND
    1    1    2 1     
    2    1   14 1     
    3    1   15 1     
    4    1   16 1     
    5    2    3 1     
    6    3    4 2     
    7    3    5 1     
    8    5    6 ar    
    9    5   11 ar    
   10    6    7 ar    
   11    6   17 1     
   12    7    8 1     
   13    7    9 ar    
   14    8   23 1     
   15    8   24 1     
   16    9   10 ar    
   17    9   18 1     
   18   10   11 ar    
   19   10   19 1     
   20   11   12 1     
   21   12   13 1     
   22   13   20 1     
   23   13   21 1     
   24   13   22 1     
@<TRIPOS>SUBSTRUCTURE
      1 ****           1
@<TRIPOS>SET
DONOR_HYDROGENS      STATIC     ATOMS    <user>   **** ""
2 23 24
ATOM$RED        STATIC     ATOMS    COLORGROUP SYSTEM
2 23 24
@<TRIPOS>COMMENT
> <Gold.Version>
2022.2.0

> <Gold.Id.Protein>
1qkm|1qkm_protein|mol2

> <Gold.Protein.RotatedTorsions>
[  496  491  490  487 ] final  175.86 input  -89.99 | X-H torsion

> <Gold.Protein.ActiveResidues>
 MET295  LEU298  THR299  LEU301  ALA302  GLU305  TRP335  MET336  LEU339  MET340 
 GLY342  LEU343  ARG346  PHE356  ILE373  ILE376  PHE377  LEU380  LYS471  GLY472 
 MET473  HIS475  LEU476  LEU477  ASN478  MET479  VAL484  VAL487 

> <Gold.Protein.RotatedAtoms>
   37.3187   33.4037   40.9033 H   0  0  0  0  0  0  0  0  0  0  0  0  # atno 496  bound_to 491 

> <Gold.Score>
     Score     S(PLP)   S(hbond)     S(cho)   S(metal)  DE(clash)   DE(tors)     intcor
     43.54     -40.75       0.96       0.00       0.00       0.00       0.54       0.99

> <Gold.PLP.Fitness>
43.5363

> <Gold.PLP.PLP>
-40.7496

> <Gold.PLP.part.hbond>
-1.0000

> <Gold.PLP.part.metal>
0.0000

> <Gold.PLP.part.buried>
-3.1387

> <Gold.PLP.part.nonpolar>
-36.5646

> <Gold.PLP.part.repulsive>
0.2061

> <Gold.PLP.ligand.clash>
0.0000

> <Gold.PLP.ligand.torsion>
0.5417

> <Gold.PLP.Chemscore.Hbond>
0.9600

> <Gold.PLP.Chemscore.CHOScore>
0.0000

> <Gold.PLP.Chemscore.Metal>
0.0000

> <Gold.Chemscore.Hbonds>
donor molecule, donor type, donor heavy atom, donor atom, acceptor molecule, acceptor atom, score
      L1  H     8    23       P1   582  0.96

> <Gold.PLP.Chemscore.Internal.Correction>
0.9902

