#       Name:                EN300-393391_i001
#       Creating user name   aseyller
#       Creation time:       Fri Apr 21 12:43:57 2023


#       File generated by GOLD software.
#

@<TRIPOS>MOLECULE
EN300-393391_i001|amine_3|mol2|99|dock2
    24    24     1
SMALL
USER_CHARGES


@<TRIPOS>ATOM
      1 C1          32.7038  35.9513  37.6809 C.3            1 <1>                0.0000
      2 O2          31.4861  35.7989  38.4570 O.3            1 <1>                0.0000
      3 C3          30.5253  36.7267  38.2765 C.2            1 <1>                0.0000
      4 O4          30.7281  37.6775  37.5471 O.2            1 <1>                0.0000
      5 C5          29.2300  36.5885  38.9630 C.ar           1 <1>                0.0000
      6 C6          29.1711  36.0476  40.2511 C.ar           1 <1>                0.0000
      7 C7          27.9508  35.9216  40.8896 C.ar           1 <1>                0.0000
      8 N8          27.8909  35.3801  42.1796 N.pl3          1 <1>                0.0000
      9 C9          26.7819  36.3315  40.2544 C.ar           1 <1>                0.0000
     10 C10         26.8290  36.8656  38.9843 C.ar           1 <1>                0.0000
     11 C11         28.0477  37.0045  38.3301 C.ar           1 <1>                0.0000
     12 S12         28.1070  37.6877  36.7071 S.3            1 <1>                0.0000
     13 C13         28.6271  39.3999  37.0038 C.3            1 <1>                0.0000
     14 H14         33.3916  35.1404  37.9211 H              1 <1>                0.0000
     15 H15         32.4635  35.9211  36.6182 H              1 <1>                0.0000
     16 H16         33.1705  36.9066  37.9209 H              1 <1>                0.0000
     17 H17         30.0766  35.7288  40.7462 H              1 <1>                0.0000
     18 H18         25.8326  36.2302  40.7594 H              1 <1>                0.0000
     19 H19         25.9175  37.1806  38.4981 H              1 <1>                0.0000
     20 H20         27.8955  39.8967  37.6409 H              1 <1>                0.0000
     21 H21         29.5997  39.4041  37.4959 H              1 <1>                0.0000
     22 H22         28.6988  39.9279  36.0528 H              1 <1>                0.0000
     23 H23         28.7045  35.0941  42.6239 H              1 <1>                0.0000
     24 H24         27.0360  35.2909  42.6288 H              1 <1>                0.0000
@<TRIPOS>BOND
    1    1    2 1     
    2    1   14 1     
    3    1   15 1     
    4    1   16 1     
    5    2    3 1     
    6    3    4 2     
    7    3    5 1     
    8    5    6 ar    
    9    5   11 ar    
   10    6    7 ar    
   11    6   17 1     
   12    7    8 1     
   13    7    9 ar    
   14    8   23 1     
   15    8   24 1     
   16    9   10 ar    
   17    9   18 1     
   18   10   11 ar    
   19   10   19 1     
   20   11   12 1     
   21   12   13 1     
   22   13   20 1     
   23   13   21 1     
   24   13   22 1     
@<TRIPOS>SUBSTRUCTURE
      1 ****           1
@<TRIPOS>SET
DONOR_HYDROGENS      STATIC     ATOMS    <user>   **** ""
2 23 24
ATOM$RED        STATIC     ATOMS    COLORGROUP SYSTEM
2 23 24
@<TRIPOS>COMMENT
> <Gold.Version>
2022.2.0

> <Gold.Id.Protein>
1qkm|1qkm_protein|mol2

> <Gold.Protein.RotatedTorsions>
[  496  491  490  487 ] final  126.00 input  -89.99 | X-H torsion

> <Gold.Protein.ActiveResidues>
 MET295  LEU298  THR299  LEU301  ALA302  GLU305  TRP335  MET336  LEU339  MET340 
 GLY342  LEU343  ARG346  PHE356  ILE373  ILE376  PHE377  LEU380  LYS471  GLY472 
 MET473  HIS475  LEU476  LEU477  ASN478  MET479  VAL484  VAL487 

> <Gold.Protein.RotatedAtoms>
   37.1253   32.9568   41.5317 H   0  0  0  0  0  0  0  0  0  0  0  0  # atno 496  bound_to 491 

> <Gold.Score>
     Score     S(PLP)   S(hbond)     S(cho)   S(metal)  DE(clash)   DE(tors)     intcor
     42.53     -40.13       0.99       0.00       0.00       0.00       0.79       0.99

> <Gold.PLP.Fitness>
42.5256

> <Gold.PLP.PLP>
-40.1333

> <Gold.PLP.part.hbond>
-1.0000

> <Gold.PLP.part.metal>
0.0000

> <Gold.PLP.part.buried>
-4.4575

> <Gold.PLP.part.nonpolar>
-35.8082

> <Gold.PLP.part.repulsive>
0.1525

> <Gold.PLP.ligand.clash>
0.0000

> <Gold.PLP.ligand.torsion>
0.7882

> <Gold.PLP.Chemscore.Hbond>
0.9920

> <Gold.PLP.Chemscore.CHOScore>
0.0000

> <Gold.PLP.Chemscore.Metal>
0.0000

> <Gold.Chemscore.Hbonds>
donor molecule, donor type, donor heavy atom, donor atom, acceptor molecule, acceptor atom, score
      L1  H     8    24       P1   582  0.99

> <Gold.PLP.Chemscore.Internal.Correction>
0.9926

