#       Name:                EN300-393391_i001
#       Creating user name   aseyller
#       Creation time:       Fri Apr 21 12:43:56 2023


#       File generated by GOLD software.
#

@<TRIPOS>MOLECULE
EN300-393391_i001|amine_3|mol2|99|dock1
    24    24     1
SMALL
USER_CHARGES


@<TRIPOS>ATOM
      1 C1          31.5006  34.4403  38.7922 C.3            1 <1>                0.0000
      2 O2          30.1580  34.8721  39.1377 O.3            1 <1>                0.0000
      3 C3          29.8162  36.1328  38.8055 C.2            1 <1>                0.0000
      4 O4          30.6514  36.8884  38.3487 O.2            1 <1>                0.0000
      5 C5          28.4311  36.5945  38.9959 C.ar           1 <1>                0.0000
      6 C6          27.6886  36.1555  40.0964 C.ar           1 <1>                0.0000
      7 C7          26.3883  36.5941  40.2687 C.ar           1 <1>                0.0000
      8 N8          25.6440  36.1550  41.3706 N.pl3          1 <1>                0.0000
      9 C9          25.8171  37.4711  39.3507 C.ar           1 <1>                0.0000
     10 C10         26.5404  37.9096  38.2621 C.ar           1 <1>                0.0000
     11 C11         27.8503  37.4829  38.0765 C.ar           1 <1>                0.0000
     12 S12         28.7742  38.0442  36.6851 S.3            1 <1>                0.0000
     13 C13         28.9430  39.8230  36.9981 C.3            1 <1>                0.0000
     14 H14         31.6448  33.4090  39.1147 H              1 <1>                0.0000
     15 H15         31.6368  34.5058  37.7128 H              1 <1>                0.0000
     16 H16         32.2279  35.0817  39.2898 H              1 <1>                0.0000
     17 H17         28.1294  35.4752  40.8102 H              1 <1>                0.0000
     18 H18         24.8013  37.8095  39.4920 H              1 <1>                0.0000
     19 H19         26.0898  38.5892  37.5541 H              1 <1>                0.0000
     20 H20         27.9539  40.2773  37.0550 H              1 <1>                0.0000
     21 H21         29.4688  39.9778  37.9403 H              1 <1>                0.0000
     22 H22         29.5078  40.2826  36.1870 H              1 <1>                0.0000
     23 H23         26.0405  35.5442  42.0114 H              1 <1>                0.0000
     24 H24         24.7320  36.4616  41.4929 H              1 <1>                0.0000
@<TRIPOS>BOND
    1    1    2 1     
    2    1   14 1     
    3    1   15 1     
    4    1   16 1     
    5    2    3 1     
    6    3    4 2     
    7    3    5 1     
    8    5    6 ar    
    9    5   11 ar    
   10    6    7 ar    
   11    6   17 1     
   12    7    8 1     
   13    7    9 ar    
   14    8   23 1     
   15    8   24 1     
   16    9   10 ar    
   17    9   18 1     
   18   10   11 ar    
   19   10   19 1     
   20   11   12 1     
   21   12   13 1     
   22   13   20 1     
   23   13   21 1     
   24   13   22 1     
@<TRIPOS>SUBSTRUCTURE
      1 ****           1
@<TRIPOS>SET
DONOR_HYDROGENS      STATIC     ATOMS    <user>   **** ""
2 23 24
ATOM$RED        STATIC     ATOMS    COLORGROUP SYSTEM
2 23 24
@<TRIPOS>COMMENT
> <Gold.Version>
2022.2.0

> <Gold.Id.Protein>
1qkm|1qkm_protein|mol2

> <Gold.Protein.RotatedTorsions>
[  496  491  490  487 ] final  -68.25 input  -89.99 | X-H torsion

> <Gold.Protein.ActiveResidues>
 MET295  LEU298  THR299  LEU301  ALA302  GLU305  TRP335  MET336  LEU339  MET340 
 GLY342  LEU343  ARG346  PHE356  ILE373  ILE376  PHE377  LEU380  LYS471  GLY472 
 MET473  HIS475  LEU476  LEU477  ASN478  MET479  VAL484  VAL487 

> <Gold.Protein.RotatedAtoms>
   36.5635   34.7346   41.3664 H   0  0  0  0  0  0  0  0  0  0  0  0  # atno 496  bound_to 491 

> <Gold.Score>
     Score     S(PLP)   S(hbond)     S(cho)   S(metal)  DE(clash)   DE(tors)     intcor
     44.56     -41.74       1.00       0.00       0.00       0.00       0.59       0.99

> <Gold.PLP.Fitness>
44.5590

> <Gold.PLP.PLP>
-41.7399

> <Gold.PLP.part.hbond>
-1.0000

> <Gold.PLP.part.metal>
0.0000

> <Gold.PLP.part.buried>
-4.1848

> <Gold.PLP.part.nonpolar>
-36.5940

> <Gold.PLP.part.repulsive>
0.2082

> <Gold.PLP.ligand.clash>
0.0000

> <Gold.PLP.ligand.torsion>
0.5867

> <Gold.PLP.Chemscore.Hbond>
1.0000

> <Gold.PLP.Chemscore.CHOScore>
0.0000

> <Gold.PLP.Chemscore.Metal>
0.0000

> <Gold.Chemscore.Hbonds>
donor molecule, donor type, donor heavy atom, donor atom, acceptor molecule, acceptor atom, score
      L1  H     8    23       P1   582  1.00

> <Gold.PLP.Chemscore.Internal.Correction>
0.9926

