#       Name:                EN300-393391_i001
#       Creating user name   aseyller
#       Creation time:       Fri Apr 21 12:43:58 2023


#       File generated by GOLD software.
#

@<TRIPOS>MOLECULE
EN300-393391_i001|amine_3|mol2|99|dock5
    24    24     1
SMALL
USER_CHARGES


@<TRIPOS>ATOM
      1 C1          28.1033  36.4690  39.2456 C.3            1 <1>                0.0000
      2 O2          29.2428  36.1110  38.4201 O.3            1 <1>                0.0000
      3 C3          29.9500  37.1237  37.8808 C.2            1 <1>                0.0000
      4 O4          29.5795  38.2714  38.0315 O.2            1 <1>                0.0000
      5 C5          31.1714  36.8397  37.1091 C.ar           1 <1>                0.0000
      6 C6          31.5023  37.6267  36.0016 C.ar           1 <1>                0.0000
      7 C7          32.6516  37.3541  35.2821 C.ar           1 <1>                0.0000
      8 N8          32.9837  38.1416  34.1729 N.pl3          1 <1>                0.0000
      9 C9          33.4795  36.2996  35.6571 C.ar           1 <1>                0.0000
     10 C10         33.1621  35.5174  36.7471 C.ar           1 <1>                0.0000
     11 C11         32.0136  35.7808  37.4847 C.ar           1 <1>                0.0000
     12 S12         31.6090  34.7809  38.8779 S.3            1 <1>                0.0000
     13 C13         31.6307  33.1007  38.1944 C.3            1 <1>                0.0000
     14 H14         27.6239  35.5628  39.6160 H              1 <1>                0.0000
     15 H15         28.4405  37.0721  40.0886 H              1 <1>                0.0000
     16 H16         27.3899  37.0408  38.6521 H              1 <1>                0.0000
     17 H17         30.8617  38.4454  35.7086 H              1 <1>                0.0000
     18 H18         34.3755  36.0929  35.0906 H              1 <1>                0.0000
     19 H19         33.8093  34.7008  37.0311 H              1 <1>                0.0000
     20 H20         30.8934  33.0240  37.3955 H              1 <1>                0.0000
     21 H21         32.6218  32.8832  37.7963 H              1 <1>                0.0000
     22 H22         31.3900  32.3854  38.9810 H              1 <1>                0.0000
     23 H23         32.4081  38.8770  33.9104 H              1 <1>                0.0000
     24 H24         33.7893  37.9518  33.6672 H              1 <1>                0.0000
@<TRIPOS>BOND
    1    1    2 1     
    2    1   14 1     
    3    1   15 1     
    4    1   16 1     
    5    2    3 1     
    6    3    4 2     
    7    3    5 1     
    8    5    6 ar    
    9    5   11 ar    
   10    6    7 ar    
   11    6   17 1     
   12    7    8 1     
   13    7    9 ar    
   14    8   23 1     
   15    8   24 1     
   16    9   10 ar    
   17    9   18 1     
   18   10   11 ar    
   19   10   19 1     
   20   11   12 1     
   21   12   13 1     
   22   13   20 1     
   23   13   21 1     
   24   13   22 1     
@<TRIPOS>SUBSTRUCTURE
      1 ****           1
@<TRIPOS>SET
DONOR_HYDROGENS      STATIC     ATOMS    <user>   **** ""
2 23 24
ATOM$RED        STATIC     ATOMS    COLORGROUP SYSTEM
2 23 24
@<TRIPOS>COMMENT
> <Gold.Version>
2022.2.0

> <Gold.Id.Protein>
1qkm|1qkm_protein|mol2

> <Gold.Protein.RotatedTorsions>
[  496  491  490  487 ] final -122.72 input  -89.99 | X-H torsion

> <Gold.Protein.ActiveResidues>
 MET295  LEU298  THR299  LEU301  ALA302  GLU305  TRP335  MET336  LEU339  MET340 
 GLY342  LEU343  ARG346  PHE356  ILE373  ILE376  PHE377  LEU380  LYS471  GLY472 
 MET473  HIS475  LEU476  LEU477  ASN478  MET479  VAL484  VAL487 

> <Gold.Protein.RotatedAtoms>
   37.0483   34.3206   40.7843 H   0  0  0  0  0  0  0  0  0  0  0  0  # atno 496  bound_to 491 

> <Gold.Score>
     Score     S(PLP)   S(hbond)     S(cho)   S(metal)  DE(clash)   DE(tors)     intcor
     43.27     -40.38       1.00       0.00       0.00       0.00       0.55       0.99

> <Gold.PLP.Fitness>
43.2745

> <Gold.PLP.PLP>
-40.3826

> <Gold.PLP.part.hbond>
-1.0000

> <Gold.PLP.part.metal>
0.0000

> <Gold.PLP.part.buried>
-2.6792

> <Gold.PLP.part.nonpolar>
-36.8276

> <Gold.PLP.part.repulsive>
0.0770

> <Gold.PLP.ligand.clash>
0.0000

> <Gold.PLP.ligand.torsion>
0.5492

> <Gold.PLP.Chemscore.Hbond>
1.0000

> <Gold.PLP.Chemscore.CHOScore>
0.0000

> <Gold.PLP.Chemscore.Metal>
0.0000

> <Gold.Chemscore.Hbonds>
donor molecule, donor type, donor heavy atom, donor atom, acceptor molecule, acceptor atom, score
      L1  H     8    24       P1  3229  1.00

> <Gold.PLP.Chemscore.Internal.Correction>
0.9902

