#       Name:                EN300-393391_i001
#       Creating user name   aseyller
#       Creation time:       Fri Apr 21 12:44:02 2023


#       File generated by GOLD software.
#

@<TRIPOS>MOLECULE
EN300-393391_i001|amine_3|mol2|99|dock13
    24    24     1
SMALL
USER_CHARGES


@<TRIPOS>ATOM
      1 C1          30.0023  38.1797  35.4601 C.3            1 <1>                0.0000
      2 O2          29.4600  37.3759  36.5408 O.3            1 <1>                0.0000
      3 C3          28.5225  37.9508  37.3200 C.2            1 <1>                0.0000
      4 O4          28.0364  39.0175  36.9992 O.2            1 <1>                0.0000
      5 C5          28.0870  37.2864  38.5598 C.ar           1 <1>                0.0000
      6 C6          26.7554  37.3785  38.9766 C.ar           1 <1>                0.0000
      7 C7          26.3539  36.7513  40.1419 C.ar           1 <1>                0.0000
      8 N8          25.0206  36.8430  40.5600 N.pl3          1 <1>                0.0000
      9 C9          27.2707  36.0287  40.9005 C.ar           1 <1>                0.0000
     10 C10         28.5859  35.9320  40.4986 C.ar           1 <1>                0.0000
     11 C11         29.0053  36.5518  39.3272 C.ar           1 <1>                0.0000
     12 S12         30.6863  36.4273  38.8141 S.3            1 <1>                0.0000
     13 C13         30.8880  34.6514  38.5043 C.3            1 <1>                0.0000
     14 H14         30.7448  37.5990  34.9126 H              1 <1>                0.0000
     15 H15         29.1980  38.4702  34.7844 H              1 <1>                0.0000
     16 H16         30.4715  39.0732  35.8719 H              1 <1>                0.0000
     17 H17         26.0422  37.9385  38.3898 H              1 <1>                0.0000
     18 H18         26.9497  35.5413  41.8093 H              1 <1>                0.0000
     19 H19         29.2911  35.3702  41.0932 H              1 <1>                0.0000
     20 H20         30.6879  34.0976  39.4215 H              1 <1>                0.0000
     21 H21         30.1890  34.3361  37.7296 H              1 <1>                0.0000
     22 H22         31.9082  34.4535  38.1756 H              1 <1>                0.0000
     23 H23         24.3804  37.3459  40.0325 H              1 <1>                0.0000
     24 H24         24.7373  36.4038  41.3770 H              1 <1>                0.0000
@<TRIPOS>BOND
    1    1    2 1     
    2    1   14 1     
    3    1   15 1     
    4    1   16 1     
    5    2    3 1     
    6    3    4 2     
    7    3    5 1     
    8    5    6 ar    
    9    5   11 ar    
   10    6    7 ar    
   11    6   17 1     
   12    7    8 1     
   13    7    9 ar    
   14    8   23 1     
   15    8   24 1     
   16    9   10 ar    
   17    9   18 1     
   18   10   11 ar    
   19   10   19 1     
   20   11   12 1     
   21   12   13 1     
   22   13   20 1     
   23   13   21 1     
   24   13   22 1     
@<TRIPOS>SUBSTRUCTURE
      1 ****           1
@<TRIPOS>SET
DONOR_HYDROGENS      STATIC     ATOMS    <user>   **** ""
2 23 24
ATOM$RED        STATIC     ATOMS    COLORGROUP SYSTEM
2 23 24
@<TRIPOS>COMMENT
> <Gold.Version>
2022.2.0

> <Gold.Id.Protein>
1qkm|1qkm_protein|mol2

> <Gold.Protein.RotatedTorsions>
[  496  491  490  487 ] final  -81.51 input  -89.99 | X-H torsion

> <Gold.Protein.ActiveResidues>
 MET295  LEU298  THR299  LEU301  ALA302  GLU305  TRP335  MET336  LEU339  MET340 
 GLY342  LEU343  ARG346  PHE356  ILE373  ILE376  PHE377  LEU380  LYS471  GLY472 
 MET473  HIS475  LEU476  LEU477  ASN478  MET479  VAL484  VAL487 

> <Gold.Protein.RotatedAtoms>
   36.6795   34.6999   41.1855 H   0  0  0  0  0  0  0  0  0  0  0  0  # atno 496  bound_to 491 

> <Gold.Score>
     Score     S(PLP)   S(hbond)     S(cho)   S(metal)  DE(clash)   DE(tors)     intcor
     41.23     -41.40       0.02       0.00       0.00       0.00       0.60       0.99

> <Gold.PLP.Fitness>
41.2347

> <Gold.PLP.PLP>
-41.4010

> <Gold.PLP.part.hbond>
-1.0000

> <Gold.PLP.part.metal>
0.0000

> <Gold.PLP.part.buried>
-4.5374

> <Gold.PLP.part.nonpolar>
-36.0633

> <Gold.PLP.part.repulsive>
0.1686

> <Gold.PLP.ligand.clash>
0.0000

> <Gold.PLP.ligand.torsion>
0.6040

> <Gold.PLP.Chemscore.Hbond>
0.0172

> <Gold.PLP.Chemscore.CHOScore>
0.0000

> <Gold.PLP.Chemscore.Metal>
0.0000

> <Gold.Chemscore.Hbonds>
donor molecule, donor type, donor heavy atom, donor atom, acceptor molecule, acceptor atom, score
      L1  H     8    23       P1  1131  0.02

> <Gold.PLP.Chemscore.Internal.Correction>
0.9902

