#       Name:                EN300-393391_i001
#       Creating user name   aseyller
#       Creation time:       Fri Apr 21 12:43:59 2023


#       File generated by GOLD software.
#

@<TRIPOS>MOLECULE
EN300-393391_i001|amine_3|mol2|99|dock6
    24    24     1
SMALL
USER_CHARGES


@<TRIPOS>ATOM
      1 C1          32.4995  37.7585  35.1936 C.3            1 <1>                0.0000
      2 O2          31.6451  37.0781  36.1504 O.3            1 <1>                0.0000
      3 C3          30.6935  37.8169  36.7546 C.2            1 <1>                0.0000
      4 O4          30.5743  38.9952  36.4816 O.2            1 <1>                0.0000
      5 C5          29.7983  37.1966  37.7455 C.ar           1 <1>                0.0000
      6 C6          28.4625  37.6001  37.8361 C.ar           1 <1>                0.0000
      7 C7          27.6276  37.0123  38.7690 C.ar           1 <1>                0.0000
      8 N8          26.2898  37.4158  38.8605 N.pl3          1 <1>                0.0000
      9 C9          28.1126  36.0206  39.6172 C.ar           1 <1>                0.0000
     10 C10         29.4281  35.6159  39.5362 C.ar           1 <1>                0.0000
     11 C11         30.2795  36.1923  38.6007 C.ar           1 <1>                0.0000
     12 S12         31.9604  35.6740  38.4977 S.3            1 <1>                0.0000
     13 C13         31.8200  33.8887  38.2089 C.3            1 <1>                0.0000
     14 H14         33.2196  37.0511  34.7822 H              1 <1>                0.0000
     15 H15         31.8895  38.1662  34.3876 H              1 <1>                0.0000
     16 H16         33.0308  38.5688  35.6928 H              1 <1>                0.0000
     17 H17         28.0837  38.3693  37.1793 H              1 <1>                0.0000
     18 H18         27.4547  35.5660  40.3430 H              1 <1>                0.0000
     19 H19         29.7967  34.8464  40.1983 H              1 <1>                0.0000
     20 H20         31.2895  33.4266  39.0414 H              1 <1>                0.0000
     21 H21         31.2697  33.7123  37.2847 H              1 <1>                0.0000
     22 H22         32.8164  33.4544  38.1271 H              1 <1>                0.0000
     23 H23         25.9501  38.1065  38.2701 H              1 <1>                0.0000
     24 H24         25.7030  37.0047  39.5141 H              1 <1>                0.0000
@<TRIPOS>BOND
    1    1    2 1     
    2    1   14 1     
    3    1   15 1     
    4    1   16 1     
    5    2    3 1     
    6    3    4 2     
    7    3    5 1     
    8    5    6 ar    
    9    5   11 ar    
   10    6    7 ar    
   11    6   17 1     
   12    7    8 1     
   13    7    9 ar    
   14    8   23 1     
   15    8   24 1     
   16    9   10 ar    
   17    9   18 1     
   18   10   11 ar    
   19   10   19 1     
   20   11   12 1     
   21   12   13 1     
   22   13   20 1     
   23   13   21 1     
   24   13   22 1     
@<TRIPOS>SUBSTRUCTURE
      1 ****           1
@<TRIPOS>SET
DONOR_HYDROGENS      STATIC     ATOMS    <user>   **** ""
2 23 24
ATOM$RED        STATIC     ATOMS    COLORGROUP SYSTEM
2 23 24
@<TRIPOS>COMMENT
> <Gold.Version>
2022.2.0

> <Gold.Id.Protein>
1qkm|1qkm_protein|mol2

> <Gold.Protein.RotatedTorsions>
[  496  491  490  487 ] final  -21.23 input  -89.99 | X-H torsion

> <Gold.Protein.ActiveResidues>
 MET295  LEU298  THR299  LEU301  ALA302  GLU305  TRP335  MET336  LEU339  MET340 
 GLY342  LEU343  ARG346  PHE356  ILE373  ILE376  PHE377  LEU380  LYS471  GLY472 
 MET473  HIS475  LEU476  LEU477  ASN478  MET479  VAL484  VAL487 

> <Gold.Protein.RotatedAtoms>
   36.2842   34.4835   42.0185 H   0  0  0  0  0  0  0  0  0  0  0  0  # atno 496  bound_to 491 

> <Gold.Score>
     Score     S(PLP)   S(hbond)     S(cho)   S(metal)  DE(clash)   DE(tors)     intcor
     39.73     -39.76       0.00       0.00       0.00       0.00       0.51       0.99

> <Gold.PLP.Fitness>
39.7294

> <Gold.PLP.PLP>
-39.7642

> <Gold.PLP.part.hbond>
0.0000

> <Gold.PLP.part.metal>
0.0000

> <Gold.PLP.part.buried>
-4.0549

> <Gold.PLP.part.nonpolar>
-35.8911

> <Gold.PLP.part.repulsive>
0.0590

> <Gold.PLP.ligand.clash>
0.0000

> <Gold.PLP.ligand.torsion>
0.5125

> <Gold.PLP.Chemscore.Hbond>
0.0000

> <Gold.PLP.Chemscore.CHOScore>
0.0000

> <Gold.PLP.Chemscore.Metal>
0.0000

> <Gold.PLP.Chemscore.Internal.Correction>
0.9902

