#       Name:                EN300-393391_i001
#       Creating user name   aseyller
#       Creation time:       Fri Apr 21 12:43:59 2023


#       File generated by GOLD software.
#

@<TRIPOS>MOLECULE
EN300-393391_i001|amine_3|mol2|99|dock7
    24    24     1
SMALL
USER_CHARGES


@<TRIPOS>ATOM
      1 C1          33.4168  36.6343  34.9339 C.3            1 <1>                0.0000
      2 O2          32.2178  36.2491  35.6565 O.3            1 <1>                0.0000
      3 C3          32.2462  36.3717  36.9984 C.2            1 <1>                0.0000
      4 O4          33.2964  36.2487  37.5977 O.2            1 <1>                0.0000
      5 C5          31.0050  36.6545  37.7384 C.ar           1 <1>                0.0000
      6 C6          30.7994  36.0988  39.0050 C.ar           1 <1>                0.0000
      7 C7          29.6312  36.3696  39.6941 C.ar           1 <1>                0.0000
      8 N8          29.4244  35.8135  40.9625 N.pl3          1 <1>                0.0000
      9 C9          28.6604  37.1935  39.1311 C.ar           1 <1>                0.0000
     10 C10         28.8533  37.7461  37.8828 C.ar           1 <1>                0.0000
     11 C11         30.0239  37.4886  37.1787 C.ar           1 <1>                0.0000
     12 S12         30.2697  38.1956  35.5836 S.3            1 <1>                0.0000
     13 C13         30.3260  39.9753  35.9303 C.3            1 <1>                0.0000
     14 H14         33.2601  36.4869  33.8652 H              1 <1>                0.0000
     15 H15         33.6362  37.6842  35.1274 H              1 <1>                0.0000
     16 H16         34.2543  36.0209  35.2662 H              1 <1>                0.0000
     17 H17         31.5510  35.4593  39.4440 H              1 <1>                0.0000
     18 H18         27.7509  37.4007  39.6753 H              1 <1>                0.0000
     19 H19         28.0950  38.3836  37.4528 H              1 <1>                0.0000
     20 H20         29.3862  40.2865  36.3861 H              1 <1>                0.0000
     21 H21         31.1486  40.1865  36.6135 H              1 <1>                0.0000
     22 H22         30.4771  40.5221  34.9996 H              1 <1>                0.0000
     23 H23         30.0999  35.2395  41.3564 H              1 <1>                0.0000
     24 H24         28.6058  36.0024  41.4471 H              1 <1>                0.0000
@<TRIPOS>BOND
    1    1    2 1     
    2    1   14 1     
    3    1   15 1     
    4    1   16 1     
    5    2    3 1     
    6    3    4 2     
    7    3    5 1     
    8    5    6 ar    
    9    5   11 ar    
   10    6    7 ar    
   11    6   17 1     
   12    7    8 1     
   13    7    9 ar    
   14    8   23 1     
   15    8   24 1     
   16    9   10 ar    
   17    9   18 1     
   18   10   11 ar    
   19   10   19 1     
   20   11   12 1     
   21   12   13 1     
   22   13   20 1     
   23   13   21 1     
   24   13   22 1     
@<TRIPOS>SUBSTRUCTURE
      1 ****           1
@<TRIPOS>SET
DONOR_HYDROGENS      STATIC     ATOMS    <user>   **** ""
2 23 24
ATOM$RED        STATIC     ATOMS    COLORGROUP SYSTEM
2 23 24
@<TRIPOS>COMMENT
> <Gold.Version>
2022.2.0

> <Gold.Id.Protein>
1qkm|1qkm_protein|mol2

> <Gold.Protein.RotatedTorsions>
[  496  491  490  487 ] final   75.32 input  -89.99 | X-H torsion

> <Gold.Protein.ActiveResidues>
 MET295  LEU298  THR299  LEU301  ALA302  GLU305  TRP335  MET336  LEU339  MET340 
 GLY342  LEU343  ARG346  PHE356  ILE373  ILE376  PHE377  LEU380  LYS471  GLY472 
 MET473  HIS475  LEU476  LEU477  ASN478  MET479  VAL484  VAL487 

> <Gold.Protein.RotatedAtoms>
   36.6851   33.1439   42.1822 H   0  0  0  0  0  0  0  0  0  0  0  0  # atno 496  bound_to 491 

> <Gold.Score>
     Score     S(PLP)   S(hbond)     S(cho)   S(metal)  DE(clash)   DE(tors)     intcor
     41.42     -39.39       0.94       0.00       0.00       0.00       0.89       0.99

> <Gold.PLP.Fitness>
41.4225

> <Gold.PLP.PLP>
-39.3872

> <Gold.PLP.part.hbond>
-1.0000

> <Gold.PLP.part.metal>
0.0000

> <Gold.PLP.part.buried>
-4.1038

> <Gold.PLP.part.nonpolar>
-34.4338

> <Gold.PLP.part.repulsive>
0.1581

> <Gold.PLP.ligand.clash>
0.0000

> <Gold.PLP.ligand.torsion>
0.8935

> <Gold.PLP.Chemscore.Hbond>
0.9440

> <Gold.PLP.Chemscore.CHOScore>
0.0000

> <Gold.PLP.Chemscore.Metal>
0.0000

> <Gold.Chemscore.Hbonds>
donor molecule, donor type, donor heavy atom, donor atom, acceptor molecule, acceptor atom, score
      L1  H     8    23       P1   470  0.94

> <Gold.PLP.Chemscore.Internal.Correction>
0.9902

