#       Name:                EN300-393391_i001
#       Creating user name   aseyller
#       Creation time:       Fri Apr 21 12:44:03 2023


#       File generated by GOLD software.
#

@<TRIPOS>MOLECULE
EN300-393391_i001|amine_3|mol2|99|dock14
    24    24     1
SMALL
USER_CHARGES


@<TRIPOS>ATOM
      1 C1          29.5980  36.6669  40.0173 C.3            1 <1>                0.0000
      2 O2          30.1881  37.2926  38.8475 O.3            1 <1>                0.0000
      3 C3          30.9198  36.5041  38.0354 C.2            1 <1>                0.0000
      4 O4          31.1555  35.3553  38.3547 O.2            1 <1>                0.0000
      5 C5          31.4338  37.0345  36.7616 C.ar           1 <1>                0.0000
      6 C6          32.6784  36.6192  36.2781 C.ar           1 <1>                0.0000
      7 C7          33.1541  37.1213  35.0805 C.ar           1 <1>                0.0000
      8 N8          34.4004  36.7060  34.5956 N.pl3          1 <1>                0.0000
      9 C9          32.3980  38.0381  34.3553 C.ar           1 <1>                0.0000
     10 C10         31.1699  38.4543  34.8234 C.ar           1 <1>                0.0000
     11 C11         30.6742  37.9556  36.0225 C.ar           1 <1>                0.0000
     12 S12         29.1043  38.4877  36.6197 S.3            1 <1>                0.0000
     13 C13         29.2780  40.2926  36.6720 C.3            1 <1>                0.0000
     14 H14         29.0369  37.4108  40.5831 H              1 <1>                0.0000
     15 H15         28.9269  35.8679  39.7024 H              1 <1>                0.0000
     16 H16         30.3870  36.2525  40.6448 H              1 <1>                0.0000
     17 H17         33.2670  35.9080  36.8388 H              1 <1>                0.0000
     18 H18         32.7759  38.4256  33.4207 H              1 <1>                0.0000
     19 H19         30.5898  39.1663  34.2551 H              1 <1>                0.0000
     20 H20         30.0940  40.5598  37.3433 H              1 <1>                0.0000
     21 H21         29.4939  40.6660  35.6709 H              1 <1>                0.0000
     22 H22         28.3503  40.7366  37.0331 H              1 <1>                0.0000
     23 H23         34.9285  36.0671  35.0995 H              1 <1>                0.0000
     24 H24         34.7356  37.0572  33.7559 H              1 <1>                0.0000
@<TRIPOS>BOND
    1    1    2 1     
    2    1   14 1     
    3    1   15 1     
    4    1   16 1     
    5    2    3 1     
    6    3    4 2     
    7    3    5 1     
    8    5    6 ar    
    9    5   11 ar    
   10    6    7 ar    
   11    6   17 1     
   12    7    8 1     
   13    7    9 ar    
   14    8   23 1     
   15    8   24 1     
   16    9   10 ar    
   17    9   18 1     
   18   10   11 ar    
   19   10   19 1     
   20   11   12 1     
   21   12   13 1     
   22   13   20 1     
   23   13   21 1     
   24   13   22 1     
@<TRIPOS>SUBSTRUCTURE
      1 ****           1
@<TRIPOS>SET
DONOR_HYDROGENS      STATIC     ATOMS    <user>   **** ""
2 23 24
ATOM$RED        STATIC     ATOMS    COLORGROUP SYSTEM
2 23 24
@<TRIPOS>COMMENT
> <Gold.Version>
2022.2.0

> <Gold.Id.Protein>
1qkm|1qkm_protein|mol2

> <Gold.Protein.RotatedTorsions>
[  496  491  490  487 ] final   89.33 input  -89.99 | X-H torsion

> <Gold.Protein.ActiveResidues>
 MET295  LEU298  THR299  LEU301  ALA302  GLU305  TRP335  MET336  LEU339  MET340 
 GLY342  LEU343  ARG346  PHE356  ILE373  ILE376  PHE377  LEU380  LYS471  GLY472 
 MET473  HIS475  LEU476  LEU477  ASN478  MET479  VAL484  VAL487 

> <Gold.Protein.RotatedAtoms>
   36.8140   33.0264   42.0322 H   0  0  0  0  0  0  0  0  0  0  0  0  # atno 496  bound_to 491 

> <Gold.Score>
     Score     S(PLP)   S(hbond)     S(cho)   S(metal)  DE(clash)   DE(tors)     intcor
     42.62     -39.73       1.00       0.00       0.00       0.00       0.55       0.99

> <Gold.PLP.Fitness>
42.6213

> <Gold.PLP.PLP>
-39.7346

> <Gold.PLP.part.hbond>
-1.0000

> <Gold.PLP.part.metal>
0.0000

> <Gold.PLP.part.buried>
-2.6416

> <Gold.PLP.part.nonpolar>
-36.4713

> <Gold.PLP.part.repulsive>
0.2026

> <Gold.PLP.ligand.clash>
0.0000

> <Gold.PLP.ligand.torsion>
0.5517

> <Gold.PLP.Chemscore.Hbond>
1.0000

> <Gold.PLP.Chemscore.CHOScore>
0.0000

> <Gold.PLP.Chemscore.Metal>
0.0000

> <Gold.Chemscore.Hbonds>
donor molecule, donor type, donor heavy atom, donor atom, acceptor molecule, acceptor atom, score
      L1  H     8    24       P1  3229  1.00

> <Gold.PLP.Chemscore.Internal.Correction>
0.9902

