#       Name:                EN300-393391_i001
#       Creating user name   aseyller
#       Creation time:       Fri Apr 21 12:44:01 2023


#       File generated by GOLD software.
#

@<TRIPOS>MOLECULE
EN300-393391_i001|amine_3|mol2|99|dock10
    24    24     1
SMALL
USER_CHARGES


@<TRIPOS>ATOM
      1 C1          30.5573  40.0499  36.2424 C.3            1 <1>                0.0000
      2 O2          29.6372  39.3135  37.0906 O.3            1 <1>                0.0000
      3 C3          29.8820  37.9993  37.2625 C.2            1 <1>                0.0000
      4 O4          30.8060  37.4714  36.6754 O.2            1 <1>                0.0000
      5 C5          29.0300  37.2031  38.1616 C.ar           1 <1>                0.0000
      6 C6          27.6626  37.4782  38.2608 C.ar           1 <1>                0.0000
      7 C7          26.8688  36.7256  39.1071 C.ar           1 <1>                0.0000
      8 N8          25.4993  37.0003  39.2071 N.pl3          1 <1>                0.0000
      9 C9          27.4264  35.6956  39.8595 C.ar           1 <1>                0.0000
     10 C10         28.7736  35.4166  39.7692 C.ar           1 <1>                0.0000
     11 C11         29.5850  36.1596  38.9196 C.ar           1 <1>                0.0000
     12 S12         31.3064  35.8020  38.8046 S.3            1 <1>                0.0000
     13 C13         31.3291  34.0433  38.3609 C.3            1 <1>                0.0000
     14 H14         30.2462  41.0933  36.1889 H              1 <1>                0.0000
     15 H15         31.5624  39.9915  36.6599 H              1 <1>                0.0000
     16 H16         30.5538  39.6181  35.2416 H              1 <1>                0.0000
     17 H17         27.2274  38.2767  37.6781 H              1 <1>                0.0000
     18 H18         26.8002  35.1120  40.5180 H              1 <1>                0.0000
     19 H19         29.1986  34.6163  40.3569 H              1 <1>                0.0000
     20 H20         30.8325  33.4655  39.1403 H              1 <1>                0.0000
     21 H21         30.8074  33.9006  37.4145 H              1 <1>                0.0000
     22 H22         32.3612  33.7070  38.2611 H              1 <1>                0.0000
     23 H23         25.1090  37.7174  38.6833 H              1 <1>                0.0000
     24 H24         24.9411  36.4735  39.8001 H              1 <1>                0.0000
@<TRIPOS>BOND
    1    1    2 1     
    2    1   14 1     
    3    1   15 1     
    4    1   16 1     
    5    2    3 1     
    6    3    4 2     
    7    3    5 1     
    8    5    6 ar    
    9    5   11 ar    
   10    6    7 ar    
   11    6   17 1     
   12    7    8 1     
   13    7    9 ar    
   14    8   23 1     
   15    8   24 1     
   16    9   10 ar    
   17    9   18 1     
   18   10   11 ar    
   19   10   19 1     
   20   11   12 1     
   21   12   13 1     
   22   13   20 1     
   23   13   21 1     
   24   13   22 1     
@<TRIPOS>SUBSTRUCTURE
      1 ****           1
@<TRIPOS>SET
DONOR_HYDROGENS      STATIC     ATOMS    <user>   **** ""
2 23 24
ATOM$RED        STATIC     ATOMS    COLORGROUP SYSTEM
2 23 24
@<TRIPOS>COMMENT
> <Gold.Version>
2022.2.0

> <Gold.Id.Protein>
1qkm|1qkm_protein|mol2

> <Gold.Protein.RotatedTorsions>
[  496  491  490  487 ] final -160.87 input  -89.99 | X-H torsion

> <Gold.Protein.ActiveResidues>
 MET295  LEU298  THR299  LEU301  ALA302  GLU305  TRP335  MET336  LEU339  MET340 
 GLY342  LEU343  ARG346  PHE356  ILE373  ILE376  PHE377  LEU380  LYS471  GLY472 
 MET473  HIS475  LEU476  LEU477  ASN478  MET479  VAL484  VAL487 

> <Gold.Protein.RotatedAtoms>
   37.2783   33.7497   40.7504 H   0  0  0  0  0  0  0  0  0  0  0  0  # atno 496  bound_to 491 

> <Gold.Score>
     Score     S(PLP)   S(hbond)     S(cho)   S(metal)  DE(clash)   DE(tors)     intcor
     41.97     -42.03       0.00       0.00       0.00       0.00       0.52       0.99

> <Gold.PLP.Fitness>
41.9677

> <Gold.PLP.PLP>
-42.0267

> <Gold.PLP.part.hbond>
-0.4244

> <Gold.PLP.part.metal>
0.0000

> <Gold.PLP.part.buried>
-4.3047

> <Gold.PLP.part.nonpolar>
-37.7510

> <Gold.PLP.part.repulsive>
0.0797

> <Gold.PLP.ligand.clash>
0.0000

> <Gold.PLP.ligand.torsion>
0.5246

> <Gold.PLP.Chemscore.Hbond>
0.0000

> <Gold.PLP.Chemscore.CHOScore>
0.0000

> <Gold.PLP.Chemscore.Metal>
0.0000

> <Gold.PLP.Chemscore.Internal.Correction>
0.9902

