#       Name:                EN300-393391_i001
#       Creating user name   aseyller
#       Creation time:       Fri Apr 21 12:43:57 2023


#       File generated by GOLD software.
#

@<TRIPOS>MOLECULE
EN300-393391_i001|amine_3|mol2|99|dock3
    24    24     1
SMALL
USER_CHARGES


@<TRIPOS>ATOM
      1 C1          31.3234  34.6000  38.6381 C.3            1 <1>                0.0000
      2 O2          30.0201  35.2231  38.4924 O.3            1 <1>                0.0000
      3 C3          29.4239  35.6649  39.6175 C.2            1 <1>                0.0000
      4 O4          30.0093  35.6011  40.6807 O.2            1 <1>                0.0000
      5 C5          28.0634  36.2250  39.5586 C.ar           1 <1>                0.0000
      6 C6          27.1435  35.9457  40.5741 C.ar           1 <1>                0.0000
      7 C7          25.8676  36.4759  40.5120 C.ar           1 <1>                0.0000
      8 N8          24.9458  36.1967  41.5285 N.pl3          1 <1>                0.0000
      9 C9          25.4968  37.2865  39.4427 C.ar           1 <1>                0.0000
     10 C10         26.3961  37.5676  38.4362 C.ar           1 <1>                0.0000
     11 C11         27.6842  37.0474  38.4855 C.ar           1 <1>                0.0000
     12 S12         28.8330  37.4076  37.1990 S.3            1 <1>                0.0000
     13 C13         28.6902  39.2067  37.0164 C.3            1 <1>                0.0000
     14 H14         31.6897  34.2907  37.6591 H              1 <1>                0.0000
     15 H15         32.0202  35.3136  39.0778 H              1 <1>                0.0000
     16 H16         31.2389  33.7280  39.2865 H              1 <1>                0.0000
     17 H17         27.4286  35.3171  41.4048 H              1 <1>                0.0000
     18 H18         24.4988  37.6972  39.4012 H              1 <1>                0.0000
     19 H19         26.1004  38.1968  37.6097 H              1 <1>                0.0000
     20 H20         27.6658  39.4644  36.7476 H              1 <1>                0.0000
     21 H21         28.9510  39.6894  37.9583 H              1 <1>                0.0000
     22 H22         29.3679  39.5474  36.2336 H              1 <1>                0.0000
     23 H23         25.2025  35.6323  42.2744 H              1 <1>                0.0000
     24 H24         24.0506  36.5677  41.4865 H              1 <1>                0.0000
@<TRIPOS>BOND
    1    1    2 1     
    2    1   14 1     
    3    1   15 1     
    4    1   16 1     
    5    2    3 1     
    6    3    4 2     
    7    3    5 1     
    8    5    6 ar    
    9    5   11 ar    
   10    6    7 ar    
   11    6   17 1     
   12    7    8 1     
   13    7    9 ar    
   14    8   23 1     
   15    8   24 1     
   16    9   10 ar    
   17    9   18 1     
   18   10   11 ar    
   19   10   19 1     
   20   11   12 1     
   21   12   13 1     
   22   13   20 1     
   23   13   21 1     
   24   13   22 1     
@<TRIPOS>SUBSTRUCTURE
      1 ****           1
@<TRIPOS>SET
DONOR_HYDROGENS      STATIC     ATOMS    <user>   **** ""
2 23 24
ATOM$RED        STATIC     ATOMS    COLORGROUP SYSTEM
2 23 24
@<TRIPOS>COMMENT
> <Gold.Version>
2022.2.0

> <Gold.Id.Protein>
1qkm|1qkm_protein|mol2

> <Gold.Protein.RotatedTorsions>
[  496  491  490  487 ] final    1.59 input  -89.99 | X-H torsion

> <Gold.Protein.ActiveResidues>
 MET295  LEU298  THR299  LEU301  ALA302  GLU305  TRP335  MET336  LEU339  MET340 
 GLY342  LEU343  ARG346  PHE356  ILE373  ILE376  PHE377  LEU380  LYS471  GLY472 
 MET473  HIS475  LEU476  LEU477  ASN478  MET479  VAL484  VAL487 

> <Gold.Protein.RotatedAtoms>
   36.2608   34.1909   42.2489 H   0  0  0  0  0  0  0  0  0  0  0  0  # atno 496  bound_to 491 

> <Gold.Score>
     Score     S(PLP)   S(hbond)     S(cho)   S(metal)  DE(clash)   DE(tors)     intcor
     42.21     -39.53       1.06       0.00       0.00       0.00       0.75       0.99

> <Gold.PLP.Fitness>
42.2143

> <Gold.PLP.PLP>
-39.5350

> <Gold.PLP.part.hbond>
-2.0000

> <Gold.PLP.part.metal>
0.0000

> <Gold.PLP.part.buried>
-3.4075

> <Gold.PLP.part.nonpolar>
-40.7661

> <Gold.PLP.part.repulsive>
5.6492

> <Gold.PLP.ligand.clash>
0.0000

> <Gold.PLP.ligand.torsion>
0.7468

> <Gold.PLP.Chemscore.Hbond>
1.0608

> <Gold.PLP.Chemscore.CHOScore>
0.0000

> <Gold.PLP.Chemscore.Metal>
0.0000

> <Gold.Chemscore.Hbonds>
donor molecule, donor type, donor heavy atom, donor atom, acceptor molecule, acceptor atom, score
      L1  H     8    23       P1   582  1.00
      L1  H     8    24       P1  1131  0.06

> <Gold.PLP.Chemscore.Internal.Correction>
0.9905

