#       Name:                EN300-393391_i001
#       Creating user name   aseyller
#       Creation time:       Fri Apr 21 12:44:02 2023


#       File generated by GOLD software.
#

@<TRIPOS>MOLECULE
EN300-393391_i001|amine_3|mol2|99|dock12
    24    24     1
SMALL
USER_CHARGES


@<TRIPOS>ATOM
      1 C1          26.2629  36.5442  40.1733 C.3            1 <1>                0.0000
      2 O2          27.2575  36.9818  39.2102 O.3            1 <1>                0.0000
      3 C3          28.5359  36.6264  39.4466 C.2            1 <1>                0.0000
      4 O4          28.8122  35.9711  40.4321 O.2            1 <1>                0.0000
      5 C5          29.5979  37.0321  38.5107 C.ar           1 <1>                0.0000
      6 C6          29.5305  38.2705  37.8649 C.ar           1 <1>                0.0000
      7 C7          30.5322  38.6447  36.9877 C.ar           1 <1>                0.0000
      8 N8          30.4655  39.8847  36.3405 N.pl3          1 <1>                0.0000
      9 C9          31.6066  37.7930  36.7463 C.ar           1 <1>                0.0000
     10 C10         31.6822  36.5698  37.3777 C.ar           1 <1>                0.0000
     11 C11         30.6869  36.1801  38.2664 C.ar           1 <1>                0.0000
     12 S12         30.7847  34.6168  39.0732 S.3            1 <1>                0.0000
     13 C13         32.0921  33.7625  38.1505 C.3            1 <1>                0.0000
     14 H14         25.2786  36.8967  39.8647 H              1 <1>                0.0000
     15 H15         26.2597  35.4554  40.2231 H              1 <1>                0.0000
     16 H16         26.5035  36.9521  41.1550 H              1 <1>                0.0000
     17 H17         28.6980  38.9332  38.0504 H              1 <1>                0.0000
     18 H18         32.3852  38.0922  36.0602 H              1 <1>                0.0000
     19 H19         32.5187  35.9145  37.1844 H              1 <1>                0.0000
     20 H20         31.8011  33.6761  37.1038 H              1 <1>                0.0000
     21 H21         33.0194  34.3306  38.2242 H              1 <1>                0.0000
     22 H22         32.2415  32.7673  38.5694 H              1 <1>                0.0000
     23 H23         29.7177  40.4795  36.5077 H              1 <1>                0.0000
     24 H24         31.1671  40.1487  35.7250 H              1 <1>                0.0000
@<TRIPOS>BOND
    1    1    2 1     
    2    1   14 1     
    3    1   15 1     
    4    1   16 1     
    5    2    3 1     
    6    3    4 2     
    7    3    5 1     
    8    5    6 ar    
    9    5   11 ar    
   10    6    7 ar    
   11    6   17 1     
   12    7    8 1     
   13    7    9 ar    
   14    8   23 1     
   15    8   24 1     
   16    9   10 ar    
   17    9   18 1     
   18   10   11 ar    
   19   10   19 1     
   20   11   12 1     
   21   12   13 1     
   22   13   20 1     
   23   13   21 1     
   24   13   22 1     
@<TRIPOS>SUBSTRUCTURE
      1 ****           1
@<TRIPOS>SET
DONOR_HYDROGENS      STATIC     ATOMS    <user>   **** ""
2 23 24
ATOM$RED        STATIC     ATOMS    COLORGROUP SYSTEM
2 23 24
@<TRIPOS>COMMENT
> <Gold.Version>
2022.2.0

> <Gold.Id.Protein>
1qkm|1qkm_protein|mol2

> <Gold.Protein.RotatedTorsions>
[  496  491  490  487 ] final  -66.00 input  -89.99 | X-H torsion

> <Gold.Protein.ActiveResidues>
 MET295  LEU298  THR299  LEU301  ALA302  GLU305  TRP335  MET336  LEU339  MET340 
 GLY342  LEU343  ARG346  PHE356  ILE373  ILE376  PHE377  LEU380  LYS471  GLY472 
 MET473  HIS475  LEU476  LEU477  ASN478  MET479  VAL484  VAL487 

> <Gold.Protein.RotatedAtoms>
   36.5449   34.7357   41.3984 H   0  0  0  0  0  0  0  0  0  0  0  0  # atno 496  bound_to 491 

> <Gold.Score>
     Score     S(PLP)   S(hbond)     S(cho)   S(metal)  DE(clash)   DE(tors)     intcor
     38.84     -39.14       0.00       0.00       0.00       0.00       0.65       0.99

> <Gold.PLP.Fitness>
38.8393

> <Gold.PLP.PLP>
-39.1433

> <Gold.PLP.part.hbond>
0.0000

> <Gold.PLP.part.metal>
0.0000

> <Gold.PLP.part.buried>
-3.5697

> <Gold.PLP.part.nonpolar>
-35.4374

> <Gold.PLP.part.repulsive>
0.1024

> <Gold.PLP.ligand.clash>
0.0000

> <Gold.PLP.ligand.torsion>
0.6471

> <Gold.PLP.Chemscore.Hbond>
0.0000

> <Gold.PLP.Chemscore.CHOScore>
0.0000

> <Gold.PLP.Chemscore.Metal>
0.0000

> <Gold.PLP.Chemscore.Internal.Correction>
0.9902

