#       Name:                EN300-393391_i001
#       Creating user name   aseyller
#       Creation time:       Fri Apr 21 12:44:05 2023


#       File generated by GOLD software.
#

@<TRIPOS>MOLECULE
EN300-393391_i001|amine_3|mol2|99|dock18
    24    24     1
SMALL
USER_CHARGES


@<TRIPOS>ATOM
      1 C1          31.5162  34.1976  38.7955 C.3            1 <1>                0.0000
      2 O2          31.0195  35.4191  38.1876 O.3            1 <1>                0.0000
      3 C3          29.9045  35.9578  38.7196 C.2            1 <1>                0.0000
      4 O4          29.3873  35.4462  39.6932 O.2            1 <1>                0.0000
      5 C5          29.3129  37.1662  38.1214 C.ar           1 <1>                0.0000
      6 C6          30.1369  38.1645  37.5924 C.ar           1 <1>                0.0000
      7 C7          29.5738  39.2964  37.0316 C.ar           1 <1>                0.0000
      8 N8          30.3982  40.2966  36.5017 N.pl3          1 <1>                0.0000
      9 C9          28.1901  39.4446  36.9919 C.ar           1 <1>                0.0000
     10 C10         27.3689  38.4664  37.5110 C.ar           1 <1>                0.0000
     11 C11         27.9180  37.3199  38.0735 C.ar           1 <1>                0.0000
     12 S12         26.8677  36.0701  38.7363 S.3            1 <1>                0.0000
     13 C13         25.8082  36.9935  39.8833 C.3            1 <1>                0.0000
     14 H14         32.4156  33.8714  38.2730 H              1 <1>                0.0000
     15 H15         31.7519  34.3831  39.8433 H              1 <1>                0.0000
     16 H16         30.7542  33.4213  38.7263 H              1 <1>                0.0000
     17 H17         31.2107  38.0519  37.6220 H              1 <1>                0.0000
     18 H18         27.7576  40.3311  36.5521 H              1 <1>                0.0000
     19 H19         26.2965  38.5893  37.4769 H              1 <1>                0.0000
     20 H20         26.4256  37.4691  40.6452 H              1 <1>                0.0000
     21 H21         25.2566  37.7565  39.3341 H              1 <1>                0.0000
     22 H22         25.1058  36.3095  40.3597 H              1 <1>                0.0000
     23 H23         31.3625  40.1949  36.5283 H              1 <1>                0.0000
     24 H24         30.0050  41.0910  36.1081 H              1 <1>                0.0000
@<TRIPOS>BOND
    1    1    2 1     
    2    1   14 1     
    3    1   15 1     
    4    1   16 1     
    5    2    3 1     
    6    3    4 2     
    7    3    5 1     
    8    5    6 ar    
    9    5   11 ar    
   10    6    7 ar    
   11    6   17 1     
   12    7    8 1     
   13    7    9 ar    
   14    8   23 1     
   15    8   24 1     
   16    9   10 ar    
   17    9   18 1     
   18   10   11 ar    
   19   10   19 1     
   20   11   12 1     
   21   12   13 1     
   22   13   20 1     
   23   13   21 1     
   24   13   22 1     
@<TRIPOS>SUBSTRUCTURE
      1 ****           1
@<TRIPOS>SET
DONOR_HYDROGENS      STATIC     ATOMS    <user>   **** ""
2 23 24
ATOM$RED        STATIC     ATOMS    COLORGROUP SYSTEM
2 23 24
@<TRIPOS>COMMENT
> <Gold.Version>
2022.2.0

> <Gold.Id.Protein>
1qkm|1qkm_protein|mol2

> <Gold.Protein.RotatedTorsions>
[  496  491  490  487 ] final -110.97 input  -89.99 | X-H torsion

> <Gold.Protein.ActiveResidues>
 MET295  LEU298  THR299  LEU301  ALA302  GLU305  TRP335  MET336  LEU339  MET340 
 GLY342  LEU343  ARG346  PHE356  ILE373  ILE376  PHE377  LEU380  LYS471  GLY472 
 MET473  HIS475  LEU476  LEU477  ASN478  MET479  VAL484  VAL487 

> <Gold.Protein.RotatedAtoms>
   36.9487   34.4647   40.8656 H   0  0  0  0  0  0  0  0  0  0  0  0  # atno 496  bound_to 491 

> <Gold.Score>
     Score     S(PLP)   S(hbond)     S(cho)   S(metal)  DE(clash)   DE(tors)     intcor
     42.54     -42.71       0.00       0.00       0.00       0.00       0.58       0.99

> <Gold.PLP.Fitness>
42.5352

> <Gold.PLP.PLP>
-42.7060

> <Gold.PLP.part.hbond>
0.0000

> <Gold.PLP.part.metal>
0.0000

> <Gold.PLP.part.buried>
-3.9215

> <Gold.PLP.part.nonpolar>
-38.5471

> <Gold.PLP.part.repulsive>
0.1371

> <Gold.PLP.ligand.clash>
0.0000

> <Gold.PLP.ligand.torsion>
0.5805

> <Gold.PLP.Chemscore.Hbond>
0.0000

> <Gold.PLP.Chemscore.CHOScore>
0.0000

> <Gold.PLP.Chemscore.Metal>
0.0000

> <Gold.PLP.Chemscore.Internal.Correction>
0.9902

