#       Name:                EN300-393391_i001
#       Creating user name   aseyller
#       Creation time:       Fri Apr 21 12:44:04 2023


#       File generated by GOLD software.
#

@<TRIPOS>MOLECULE
EN300-393391_i001|amine_3|mol2|99|dock16
    24    24     1
SMALL
USER_CHARGES


@<TRIPOS>ATOM
      1 C1          26.1530  37.2475  39.0757 C.3            1 <1>                0.0000
      2 O2          27.4793  37.0499  38.5188 O.3            1 <1>                0.0000
      3 C3          28.3024  36.2128  39.1808 C.2            1 <1>                0.0000
      4 O4          27.9230  35.6651  40.1972 O.2            1 <1>                0.0000
      5 C5          29.6614  35.9617  38.6725 C.ar           1 <1>                0.0000
      6 C6          30.2384  34.6949  38.8042 C.ar           1 <1>                0.0000
      7 C7          31.5151  34.4666  38.3238 C.ar           1 <1>                0.0000
      8 N8          32.0937  33.1982  38.4552 N.pl3          1 <1>                0.0000
      9 C9          32.2267  35.4935  37.7096 C.ar           1 <1>                0.0000
     10 C10         31.6670  36.7462  37.5751 C.ar           1 <1>                0.0000
     11 C11         30.3829  36.9915  38.0476 C.ar           1 <1>                0.0000
     12 S12         29.6682  38.5928  37.8749 S.3            1 <1>                0.0000
     13 C13         29.7017  38.8633  36.0815 C.3            1 <1>                0.0000
     14 H14         25.5950  37.9421  38.4477 H              1 <1>                0.0000
     15 H15         25.6295  36.2923  39.1150 H              1 <1>                0.0000
     16 H16         26.2388  37.6564  40.0825 H              1 <1>                0.0000
     17 H17         29.6884  33.8964  39.2803 H              1 <1>                0.0000
     18 H18         33.2230  35.3077  37.3366 H              1 <1>                0.0000
     19 H19         32.2259  37.5377  37.0981 H              1 <1>                0.0000
     20 H20         30.7317  38.8239  35.7273 H              1 <1>                0.0000
     21 H21         29.1171  38.0880  35.5862 H              1 <1>                0.0000
     22 H22         29.2762  39.8406  35.8535 H              1 <1>                0.0000
     23 H23         31.5992  32.4815  38.8826 H              1 <1>                0.0000
     24 H24         32.9889  33.0364  38.1188 H              1 <1>                0.0000
@<TRIPOS>BOND
    1    1    2 1     
    2    1   14 1     
    3    1   15 1     
    4    1   16 1     
    5    2    3 1     
    6    3    4 2     
    7    3    5 1     
    8    5    6 ar    
    9    5   11 ar    
   10    6    7 ar    
   11    6   17 1     
   12    7    8 1     
   13    7    9 ar    
   14    8   23 1     
   15    8   24 1     
   16    9   10 ar    
   17    9   18 1     
   18   10   11 ar    
   19   10   19 1     
   20   11   12 1     
   21   12   13 1     
   22   13   20 1     
   23   13   21 1     
   24   13   22 1     
@<TRIPOS>SUBSTRUCTURE
      1 ****           1
@<TRIPOS>SET
DONOR_HYDROGENS      STATIC     ATOMS    <user>   **** ""
2 23 24
ATOM$RED        STATIC     ATOMS    COLORGROUP SYSTEM
2 23 24
@<TRIPOS>COMMENT
> <Gold.Version>
2022.2.0

> <Gold.Id.Protein>
1qkm|1qkm_protein|mol2

> <Gold.Protein.RotatedTorsions>
[  496  491  490  487 ] final   -0.68 input  -89.99 | X-H torsion

> <Gold.Protein.ActiveResidues>
 MET295  LEU298  THR299  LEU301  ALA302  GLU305  TRP335  MET336  LEU339  MET340 
 GLY342  LEU343  ARG346  PHE356  ILE373  ILE376  PHE377  LEU380  LYS471  GLY472 
 MET473  HIS475  LEU476  LEU477  ASN478  MET479  VAL484  VAL487 

> <Gold.Protein.RotatedAtoms>
   36.2594   34.2233   42.2304 H   0  0  0  0  0  0  0  0  0  0  0  0  # atno 496  bound_to 491 

> <Gold.Score>
     Score     S(PLP)   S(hbond)     S(cho)   S(metal)  DE(clash)   DE(tors)     intcor
     39.68     -39.70       0.00       0.00       0.00       0.00       0.51       0.99

> <Gold.PLP.Fitness>
39.6816

> <Gold.PLP.PLP>
-39.7027

> <Gold.PLP.part.hbond>
0.0000

> <Gold.PLP.part.metal>
0.0000

> <Gold.PLP.part.buried>
-3.9800

> <Gold.PLP.part.nonpolar>
-36.2288

> <Gold.PLP.part.repulsive>
0.1104

> <Gold.PLP.ligand.clash>
0.0000

> <Gold.PLP.ligand.torsion>
0.5056

> <Gold.PLP.Chemscore.Hbond>
0.0000

> <Gold.PLP.Chemscore.CHOScore>
0.0000

> <Gold.PLP.Chemscore.Metal>
0.0000

> <Gold.PLP.Chemscore.Internal.Correction>
0.9902

