#       Name:                EN300-393391_i001
#       Creating user name   aseyller
#       Creation time:       Fri Apr 21 12:44:01 2023


#       File generated by GOLD software.
#

@<TRIPOS>MOLECULE
EN300-393391_i001|amine_3|mol2|99|dock11
    24    24     1
SMALL
USER_CHARGES


@<TRIPOS>ATOM
      1 C1          25.8743  36.8217  40.9326 C.3            1 <1>                0.0000
      2 O2          27.2289  36.5248  40.5021 O.3            1 <1>                0.0000
      3 C3          27.5587  36.8663  39.2407 C.2            1 <1>                0.0000
      4 O4          26.7150  37.3229  38.4945 O.2            1 <1>                0.0000
      5 C5          28.9411  36.6862  38.7667 C.ar           1 <1>                0.0000
      6 C6          29.7002  35.5987  39.2098 C.ar           1 <1>                0.0000
      7 C7          30.9978  35.4360  38.7597 C.ar           1 <1>                0.0000
      8 N8          31.7588  34.3472  39.2029 N.pl3          1 <1>                0.0000
      9 C9          31.5498  36.3506  37.8670 C.ar           1 <1>                0.0000
     10 C10         30.8099  37.4264  37.4244 C.ar           1 <1>                0.0000
     11 C11         29.5024  37.6021  37.8626 C.ar           1 <1>                0.0000
     12 S12         28.5574  38.9771  37.2959 S.3            1 <1>                0.0000
     13 C13         29.7788  39.9662  36.3902 C.3            1 <1>                0.0000
     14 H14         25.7416  36.4966  41.9646 H              1 <1>                0.0000
     15 H15         25.6984  37.8951  40.8644 H              1 <1>                0.0000
     16 H16         25.1661  36.2960  40.2923 H              1 <1>                0.0000
     17 H17         29.2743  34.8876  39.9023 H              1 <1>                0.0000
     18 H18         32.5636  36.2168  37.5197 H              1 <1>                0.0000
     19 H19         31.2457  38.1319  36.7325 H              1 <1>                0.0000
     20 H20         30.5818  40.2599  37.0662 H              1 <1>                0.0000
     21 H21         30.1905  39.3751  35.5722 H              1 <1>                0.0000
     22 H22         29.2980  40.8580  35.9880 H              1 <1>                0.0000
     23 H23         31.3757  33.7088  39.8246 H              1 <1>                0.0000
     24 H24         32.6689  34.2316  38.8882 H              1 <1>                0.0000
@<TRIPOS>BOND
    1    1    2 1     
    2    1   14 1     
    3    1   15 1     
    4    1   16 1     
    5    2    3 1     
    6    3    4 2     
    7    3    5 1     
    8    5    6 ar    
    9    5   11 ar    
   10    6    7 ar    
   11    6   17 1     
   12    7    8 1     
   13    7    9 ar    
   14    8   23 1     
   15    8   24 1     
   16    9   10 ar    
   17    9   18 1     
   18   10   11 ar    
   19   10   19 1     
   20   11   12 1     
   21   12   13 1     
   22   13   20 1     
   23   13   21 1     
   24   13   22 1     
@<TRIPOS>SUBSTRUCTURE
      1 ****           1
@<TRIPOS>SET
DONOR_HYDROGENS      STATIC     ATOMS    <user>   **** ""
2 23 24
ATOM$RED        STATIC     ATOMS    COLORGROUP SYSTEM
2 23 24
@<TRIPOS>COMMENT
> <Gold.Version>
2022.2.0

> <Gold.Id.Protein>
1qkm|1qkm_protein|mol2

> <Gold.Protein.RotatedTorsions>
[  496  491  490  487 ] final   89.24 input  -89.99 | X-H torsion

> <Gold.Protein.ActiveResidues>
 MET295  LEU298  THR299  LEU301  ALA302  GLU305  TRP335  MET336  LEU339  MET340 
 GLY342  LEU343  ARG346  PHE356  ILE373  ILE376  PHE377  LEU380  LYS471  GLY472 
 MET473  HIS475  LEU476  LEU477  ASN478  MET479  VAL484  VAL487 

> <Gold.Protein.RotatedAtoms>
   36.8132   33.0270   42.0332 H   0  0  0  0  0  0  0  0  0  0  0  0  # atno 496  bound_to 491 

> <Gold.Score>
     Score     S(PLP)   S(hbond)     S(cho)   S(metal)  DE(clash)   DE(tors)     intcor
     39.99     -40.16       0.00       0.00       0.00       0.00       0.58       0.99

> <Gold.PLP.Fitness>
39.9852

> <Gold.PLP.PLP>
-40.1589

> <Gold.PLP.part.hbond>
-1.0000

> <Gold.PLP.part.metal>
0.0000

> <Gold.PLP.part.buried>
-3.7541

> <Gold.PLP.part.nonpolar>
-36.1992

> <Gold.PLP.part.repulsive>
0.1733

> <Gold.PLP.ligand.clash>
0.0000

> <Gold.PLP.ligand.torsion>
0.5819

> <Gold.PLP.Chemscore.Hbond>
0.0000

> <Gold.PLP.Chemscore.CHOScore>
0.0000

> <Gold.PLP.Chemscore.Metal>
0.0000

> <Gold.PLP.Chemscore.Internal.Correction>
0.9902

