#       Name:                EN300-393391_i001
#       Creating user name   aseyller
#       Creation time:       Fri Apr 21 12:44:05 2023


#       File generated by GOLD software.
#

@<TRIPOS>MOLECULE
EN300-393391_i001|amine_3|mol2|99|dock19
    24    24     1
SMALL
USER_CHARGES


@<TRIPOS>ATOM
      1 C1          29.4085  40.5881  36.5018 C.3            1 <1>                0.0000
      2 O2          30.2473  39.5039  36.9806 O.3            1 <1>                0.0000
      3 C3          29.6284  38.3560  37.3209 C.2            1 <1>                0.0000
      4 O4          28.4148  38.2919  37.3043 O.2            1 <1>                0.0000
      5 C5          30.4225  37.1796  37.7129 C.ar           1 <1>                0.0000
      6 C6          31.6427  36.9136  37.0838 C.ar           1 <1>                0.0000
      7 C7          32.3831  35.8070  37.4579 C.ar           1 <1>                0.0000
      8 N8          33.6051  35.5399  36.8284 N.pl3          1 <1>                0.0000
      9 C9          31.9179  34.9581  38.4583 C.ar           1 <1>                0.0000
     10 C10         30.7161  35.2112  39.0845 C.ar           1 <1>                0.0000
     11 C11         29.9617  36.3219  38.7246 C.ar           1 <1>                0.0000
     12 S12         28.4260  36.6449  39.5258 S.3            1 <1>                0.0000
     13 C13         28.8837  36.6949  41.2804 C.3            1 <1>                0.0000
     14 H14         30.0308  41.4508  36.2633 H              1 <1>                0.0000
     15 H15         28.8748  40.2668  35.6074 H              1 <1>                0.0000
     16 H16         28.6904  40.8608  37.2751 H              1 <1>                0.0000
     17 H17         32.0059  37.5707  36.3073 H              1 <1>                0.0000
     18 H18         32.5018  34.0960  38.7453 H              1 <1>                0.0000
     19 H19         30.3618  34.5473  39.8592 H              1 <1>                0.0000
     20 H20         29.3144  35.7367  41.5709 H              1 <1>                0.0000
     21 H21         29.6155  37.4863  41.4426 H              1 <1>                0.0000
     22 H22         27.9963  36.8917  41.8819 H              1 <1>                0.0000
     23 H23         33.9310  36.1305  36.1313 H              1 <1>                0.0000
     24 H24         34.1257  34.7643  37.0895 H              1 <1>                0.0000
@<TRIPOS>BOND
    1    1    2 1     
    2    1   14 1     
    3    1   15 1     
    4    1   16 1     
    5    2    3 1     
    6    3    4 2     
    7    3    5 1     
    8    5    6 ar    
    9    5   11 ar    
   10    6    7 ar    
   11    6   17 1     
   12    7    8 1     
   13    7    9 ar    
   14    8   23 1     
   15    8   24 1     
   16    9   10 ar    
   17    9   18 1     
   18   10   11 ar    
   19   10   19 1     
   20   11   12 1     
   21   12   13 1     
   22   13   20 1     
   23   13   21 1     
   24   13   22 1     
@<TRIPOS>SUBSTRUCTURE
      1 ****           1
@<TRIPOS>SET
DONOR_HYDROGENS      STATIC     ATOMS    <user>   **** ""
2 23 24
ATOM$RED        STATIC     ATOMS    COLORGROUP SYSTEM
2 23 24
@<TRIPOS>COMMENT
> <Gold.Version>
2022.2.0

> <Gold.Id.Protein>
1qkm|1qkm_protein|mol2

> <Gold.Protein.RotatedTorsions>
[  496  491  490  487 ] final  139.01 input  -89.99 | X-H torsion

> <Gold.Protein.ActiveResidues>
 MET295  LEU298  THR299  LEU301  ALA302  GLU305  TRP335  MET336  LEU339  MET340 
 GLY342  LEU343  ARG346  PHE356  ILE373  ILE376  PHE377  LEU380  LYS471  GLY472 
 MET473  HIS475  LEU476  LEU477  ASN478  MET479  VAL484  VAL487 

> <Gold.Protein.RotatedAtoms>
   37.2088   33.0188   41.3451 H   0  0  0  0  0  0  0  0  0  0  0  0  # atno 496  bound_to 491 

> <Gold.Score>
     Score     S(PLP)   S(hbond)     S(cho)   S(metal)  DE(clash)   DE(tors)     intcor
     40.44     -40.60       0.00       0.00       0.00       0.00       0.57       0.99

> <Gold.PLP.Fitness>
40.4395

> <Gold.PLP.PLP>
-40.5968

> <Gold.PLP.part.hbond>
0.0000

> <Gold.PLP.part.metal>
0.0000

> <Gold.PLP.part.buried>
-3.0070

> <Gold.PLP.part.nonpolar>
-38.1277

> <Gold.PLP.part.repulsive>
0.0028

> <Gold.PLP.ligand.clash>
0.0000

> <Gold.PLP.ligand.torsion>
0.5737

> <Gold.PLP.Chemscore.Hbond>
0.0000

> <Gold.PLP.Chemscore.CHOScore>
0.0000

> <Gold.PLP.Chemscore.Metal>
0.0000

> <Gold.PLP.Chemscore.Internal.Correction>
0.9902

