#       Name:                EN300-193626_i001
#       Creating user name   fsindt
#       Creation time:       Wed Mar  1 05:10:14 2023


#       File generated by GOLD software.
#

@<TRIPOS>MOLECULE
EN300-193626_i001|amine_4|mol2|10283|dock10
    34    34     1
SMALL
USER_CHARGES


@<TRIPOS>ATOM
      1 C1          -1.2827 -23.5178  12.4091 C.3            1 <1>                0.0000
      2 C2          -0.5914 -22.9075  13.6299 C.3            1 <1>                0.0000
      3 C3          -1.6444 -22.3183  14.5707 C.3            1 <1>                0.0000
      4 C4           0.1985 -23.9927  14.3642 C.3            1 <1>                0.0000
      5 O5           0.2998 -21.8743  13.2057 O.3            1 <1>                0.0000
      6 C6          -0.3579 -20.7057  12.7119 C.3            1 <1>                0.0000
      7 C7          -0.7017 -20.7786  11.2147 C.3            1 <1>                0.0000
      8 C8          -0.2845 -19.3010  11.1275 C.3            1 <1>                0.0000
      9 N9           0.4717 -18.9739   9.9112 N.4            1 <1>                1.0000
     10 C10          0.6050 -19.5613  12.3546 C.3            1 <1>                0.0000
     11 C11          0.5994 -18.4163  13.3695 C.3            1 <1>                0.0000
     12 C12          2.0157 -20.0354  11.9996 C.3            1 <1>                0.0000
     13 H13         -1.8455 -22.7446  11.8859 H              1 <1>                0.0000
     14 H14         -0.5326 -23.9375  11.7388 H              1 <1>                0.0000
     15 H15         -1.9627 -24.3059  12.7326 H              1 <1>                0.0000
     16 H16         -2.3242 -23.1065  14.8942 H              1 <1>                0.0000
     17 H17         -1.1519 -21.8836  15.4406 H              1 <1>                0.0000
     18 H18         -2.2071 -21.5452  14.0476 H              1 <1>                0.0000
     19 H19          0.9486 -24.4125  13.6940 H              1 <1>                0.0000
     20 H20          0.6910 -23.5580  15.2340 H              1 <1>                0.0000
     21 H21         -0.4814 -24.7810  14.6878 H              1 <1>                0.0000
     22 H22         -1.1948 -20.3949  13.3374 H              1 <1>                0.0000
     23 H23         -0.0540 -21.4493  10.6502 H              1 <1>                0.0000
     24 H24         -1.7606 -20.9456  11.0175 H              1 <1>                0.0000
     25 H25         -1.1011 -18.6047  11.3182 H              1 <1>                0.0000
     26 H26         -0.4132 -18.0259  13.4713 H              1 <1>                0.0000
     27 H27          0.9455 -18.7849  14.3351 H              1 <1>                0.0000
     28 H28          1.2620 -17.6222  13.0250 H              1 <1>                0.0000
     29 H29          2.6240 -19.1795  11.7076 H              1 <1>                0.0000
     30 H30          2.4644 -20.5214  12.8659 H              1 <1>                0.0000
     31 H31          1.9636 -20.7433  11.1723 H              1 <1>                0.0000
     32 H32         -0.1457 -18.5502   9.2351 H              1 <1>                0.0000
     33 H33          1.2136 -18.3293  10.1397 H              1 <1>                0.0000
     34 H34          0.8667 -19.8177   9.5237 H              1 <1>                0.0000
@<TRIPOS>BOND
    1    1    2 1     
    2    1   13 1     
    3    1   14 1     
    4    1   15 1     
    5    2    3 1     
    6    2    4 1     
    7    2    5 1     
    8    3   16 1     
    9    3   17 1     
   10    3   18 1     
   11    4   19 1     
   12    4   20 1     
   13    4   21 1     
   14    5    6 1     
   15    6    7 1     
   16    6   10 1     
   17    6   22 1     
   18    7    8 1     
   19    7   23 1     
   20    7   24 1     
   21    8    9 1     
   22    8   10 1     
   23    8   25 1     
   24    9   32 1     
   25    9   33 1     
   26    9   34 1     
   27   10   11 1     
   28   10   12 1     
   29   11   26 1     
   30   11   27 1     
   31   11   28 1     
   32   12   29 1     
   33   12   30 1     
   34   12   31 1     
@<TRIPOS>SUBSTRUCTURE
      1 ****           1
@<TRIPOS>SET
DONOR_HYDROGENS      STATIC     ATOMS    <user>   **** ""
3 32 33 34
ATOM$RED        STATIC     ATOMS    COLORGROUP SYSTEM
3 32 33 34
@<TRIPOS>COMMENT
> <Gold.Version>
2022.2.0

> <Gold.Id.Protein>
3pbl|protein|mol2

> <Gold.Protein.RotatedTorsions>
[ 1303 1298 1297 1294 ] final -111.29 input  179.99 | X-H torsion
[ 2461 2456 2455 2452 ] final -119.93 input   30.03 | X-H torsion
[ 2515 2510 2509 2506 ] final -173.12 input  -89.99 | X-H torsion
[ 3721 3712 3711 3710 ] final  141.41 input -179.91 | X-H torsion
[ 3841 3832 3831 3830 ] final  106.71 input -179.91 | X-H torsion
[ 3767 3762 3761 3758 ] final -123.97 input  -89.99 | X-H torsion
[ 2472 2467 2466 2463 ] final   -8.40 input  -89.97 | X-H torsion

> <Gold.Protein.ActiveResidues>
 VAL82   VAL86   LEU89   PHE106  VAL107  ASP110  VAL111  MET112  CYS114  THR115 
 CYS181  SER182  ILE183  PHE188  VAL189  ILE190  SER192  SER193  SER196  TRP342 
 PHE345  PHE346  HIS349  VAL350  TYR365  THR369  GLY372  TYR373 

> <Gold.Protein.RotatedAtoms>
    4.1131   -8.4967    4.0187 H   0  0  0  0  0  0  0  0  0  0  0  0  # atno 1303 bound_to 1298
    0.5748   -9.1737    8.0522 H   0  0  0  0  0  0  0  0  0  0  0  0  # atno 2461 bound_to 2456
   -3.7289   -4.9097    8.1879 H   0  0  0  0  0  0  0  0  0  0  0  0  # atno 2472 bound_to 2467
    2.3711   -9.1037    5.7642 H   0  0  0  0  0  0  0  0  0  0  0  0  # atno 2515 bound_to 2510
   -3.1554  -16.9626   13.1296 H   0  0  0  0  0  0  0  0  0  0  0  0  # atno 3721 bound_to 3712
   -4.7936  -21.9888   11.5479 H   0  0  0  0  0  0  0  0  0  0  0  0  # atno 3767 bound_to 3762
    2.9970  -20.8313    9.0867 H   0  0  0  0  0  0  0  0  0  0  0  0  # atno 3841 bound_to 3832
    4.8098   -9.6447    4.9476 LP  0  0  0  0  0  0  0  0  0  0  0  0  # atno 4297 bound_to 1298
    3.4393   -9.9802    4.1254 LP  0  0  0  0  0  0  0  0  0  0  0  0  # atno 4298 bound_to 1298
    2.1206   -8.6466    8.0652 LP  0  0  0  0  0  0  0  0  0  0  0  0  # atno 4299 bound_to 2456
    1.0421   -7.9880    7.0308 LP  0  0  0  0  0  0  0  0  0  0  0  0  # atno 4300 bound_to 2456
    2.1173   -7.5053    5.5484 LP  0  0  0  0  0  0  0  0  0  0  0  0  # atno 4301 bound_to 2510
    2.8084   -8.3898    4.3624 LP  0  0  0  0  0  0  0  0  0  0  0  0  # atno 4302 bound_to 2510
   -2.6081  -18.2133   13.9745 LP  0  0  0  0  0  0  0  0  0  0  0  0  # atno 4306 bound_to 3712
   -3.2766  -16.9293   14.7302 LP  0  0  0  0  0  0  0  0  0  0  0  0  # atno 4307 bound_to 3712
    1.4664  -20.4454    9.3772 LP  0  0  0  0  0  0  0  0  0  0  0  0  # atno 4314 bound_to 3832
    2.3009  -19.6966    8.1900 LP  0  0  0  0  0  0  0  0  0  0  0  0  # atno 4315 bound_to 3832
   -3.9761  -23.2179   10.8493 LP  0  0  0  0  0  0  0  0  0  0  0  0  # atno 4318 bound_to 3762
   -5.3577  -22.6681   10.1741 LP  0  0  0  0  0  0  0  0  0  0  0  0  # atno 4319 bound_to 3762
   -4.6387   -5.4562    9.4288 LP  0  0  0  0  0  0  0  0  0  0  0  0  # atno 4320 bound_to 2467
   -5.3491   -5.0275    8.0224 LP  0  0  0  0  0  0  0  0  0  0  0  0  # atno 4321 bound_to 2467

> <Gold.Score>
     Score     S(PLP)   S(hbond)     S(cho)   S(metal)  DE(clash)   DE(tors)     intcor
     34.77     -26.48       2.80       0.00       0.00       0.00       0.24       0.37

> <Gold.PLP.Fitness>
34.7748

> <Gold.PLP.PLP>
-26.4761

> <Gold.PLP.part.hbond>
-2.0000

> <Gold.PLP.part.metal>
0.0000

> <Gold.PLP.part.buried>
-3.8275

> <Gold.PLP.part.nonpolar>
-21.1291

> <Gold.PLP.part.repulsive>
0.0000

> <Gold.PLP.ligand.clash>
0.0000

> <Gold.PLP.ligand.torsion>
0.2368

> <Gold.PLP.Chemscore.Hbond>
2.8000

> <Gold.PLP.Chemscore.CHOScore>
0.0000

> <Gold.PLP.Chemscore.Metal>
0.0000

> <Gold.Chemscore.Hbonds>
donor molecule, donor type, donor heavy atom, donor atom, acceptor molecule, acceptor atom, score
      L1  H     9    33       P1  1227  1.82
      L1  H     9    34       P1  3832  0.98

> <Gold.PLP.Chemscore.Internal.Correction>
0.3723

