#       Name:                EN300-193626_i001
#       Creating user name   fsindt
#       Creation time:       Wed Mar  1 05:10:20 2023


#       File generated by GOLD software.
#

@<TRIPOS>MOLECULE
EN300-193626_i001|amine_4|mol2|10283|dock17
    34    34     1
SMALL
USER_CHARGES


@<TRIPOS>ATOM
      1 C1          -0.5204 -10.0789  10.8826 C.3            1 <1>                0.0000
      2 C2          -1.4101 -11.0743  10.1354 C.3            1 <1>                0.0000
      3 C3          -1.8611 -12.1763  11.0962 C.3            1 <1>                0.0000
      4 C4          -2.6369 -10.3464   9.5822 C.3            1 <1>                0.0000
      5 O5          -0.6740 -11.6546   9.0567 O.3            1 <1>                0.0000
      6 C6           0.4598 -12.4190   9.4716 C.3            1 <1>                0.0000
      7 C7           1.4603 -12.7016   8.3385 C.3            1 <1>                0.0000
      8 C8           1.6110 -14.1131   8.9299 C.3            1 <1>                0.0000
      9 N9           1.6979 -15.1706   7.9139 N.4            1 <1>                1.0000
     10 C10          0.1995 -13.9340   9.5134 C.3            1 <1>                0.0000
     11 C11          0.0470 -14.4907  10.9303 C.3            1 <1>                0.0000
     12 C12         -0.9158 -14.3905   8.5709 C.3            1 <1>                0.0000
     13 H13          0.3537 -10.5975  11.2767 H              1 <1>                0.0000
     14 H14         -0.1991  -9.2938  10.1981 H              1 <1>                0.0000
     15 H15         -1.0818  -9.6362  11.7054 H              1 <1>                0.0000
     16 H16         -2.4225 -11.7336  11.9189 H              1 <1>                0.0000
     17 H17         -2.4950 -12.8854  10.5638 H              1 <1>                0.0000
     18 H18         -0.9871 -12.6949  11.4902 H              1 <1>                0.0000
     19 H19         -2.3156  -9.5613   8.8977 H              1 <1>                0.0000
     20 H20         -3.2708 -11.0556   9.0499 H              1 <1>                0.0000
     21 H21         -3.1984  -9.9037  10.4050 H              1 <1>                0.0000
     22 H22          0.9246 -12.0292  10.3773 H              1 <1>                0.0000
     23 H23          1.0103 -12.6898   7.3458 H              1 <1>                0.0000
     24 H24          2.3694 -12.1033   8.3994 H              1 <1>                0.0000
     25 H25          2.3916 -14.1883   9.6869 H              1 <1>                0.0000
     26 H26          0.9387 -14.2552  11.5113 H              1 <1>                0.0000
     27 H27         -0.8252 -14.0416  11.4053 H              1 <1>                0.0000
     28 H28         -0.0811 -15.5723  10.8839 H              1 <1>                0.0000
     29 H29         -1.0071 -15.4758   8.6147 H              1 <1>                0.0000
     30 H30         -1.8578 -13.9341   8.8748 H              1 <1>                0.0000
     31 H31         -0.6771 -14.0869   7.5516 H              1 <1>                0.0000
     32 H32          2.4744 -14.9821   7.2979 H              1 <1>                0.0000
     33 H33          1.8365 -16.0615   8.3668 H              1 <1>                0.0000
     34 H34          0.8426 -15.1944   7.3793 H              1 <1>                0.0000
@<TRIPOS>BOND
    1    1    2 1     
    2    1   13 1     
    3    1   14 1     
    4    1   15 1     
    5    2    3 1     
    6    2    4 1     
    7    2    5 1     
    8    3   16 1     
    9    3   17 1     
   10    3   18 1     
   11    4   19 1     
   12    4   20 1     
   13    4   21 1     
   14    5    6 1     
   15    6    7 1     
   16    6   10 1     
   17    6   22 1     
   18    7    8 1     
   19    7   23 1     
   20    7   24 1     
   21    8    9 1     
   22    8   10 1     
   23    8   25 1     
   24    9   32 1     
   25    9   33 1     
   26    9   34 1     
   27   10   11 1     
   28   10   12 1     
   29   11   26 1     
   30   11   27 1     
   31   11   28 1     
   32   12   29 1     
   33   12   30 1     
   34   12   31 1     
@<TRIPOS>SUBSTRUCTURE
      1 ****           1
@<TRIPOS>SET
DONOR_HYDROGENS      STATIC     ATOMS    <user>   **** ""
3 32 33 34
ATOM$RED        STATIC     ATOMS    COLORGROUP SYSTEM
3 32 33 34
@<TRIPOS>COMMENT
> <Gold.Version>
2022.2.0

> <Gold.Id.Protein>
3pbl|protein|mol2

> <Gold.Protein.RotatedTorsions>
[ 1303 1298 1297 1294 ] final   99.13 input  179.99 | X-H torsion
[ 2461 2456 2455 2452 ] final   89.49 input   30.03 | X-H torsion
[ 2515 2510 2509 2506 ] final -143.38 input  -89.99 | X-H torsion
[ 3721 3712 3711 3710 ] final  -34.11 input -179.91 | X-H torsion
[ 3841 3832 3831 3830 ] final  106.90 input -179.91 | X-H torsion
[ 3767 3762 3761 3758 ] final  -96.06 input  -89.99 | X-H torsion
[ 2472 2467 2466 2463 ] final -165.41 input  -89.97 | X-H torsion

> <Gold.Protein.ActiveResidues>
 VAL82   VAL86   LEU89   PHE106  VAL107  ASP110  VAL111  MET112  CYS114  THR115 
 CYS181  SER182  ILE183  PHE188  VAL189  ILE190  SER192  SER193  SER196  TRP342 
 PHE345  PHE346  HIS349  VAL350  TYR365  THR369  GLY372  TYR373 

> <Gold.Protein.RotatedAtoms>
    4.5274  -10.0319    4.9023 H   0  0  0  0  0  0  0  0  0  0  0  0  # atno 1303 bound_to 1298
    2.1364   -8.2921    7.7166 H   0  0  0  0  0  0  0  0  0  0  0  0  # atno 2461 bound_to 2456
   -5.1885   -5.4326    9.1932 H   0  0  0  0  0  0  0  0  0  0  0  0  # atno 2472 bound_to 2467
    2.5770   -9.2554    5.3536 H   0  0  0  0  0  0  0  0  0  0  0  0  # atno 2515 bound_to 2510
   -2.6263  -17.6539   14.6258 H   0  0  0  0  0  0  0  0  0  0  0  0  # atno 3721 bound_to 3712
   -5.1572  -21.9142   11.2850 H   0  0  0  0  0  0  0  0  0  0  0  0  # atno 3767 bound_to 3762
    2.9985  -20.8300    9.0846 H   0  0  0  0  0  0  0  0  0  0  0  0  # atno 3841 bound_to 3832
    3.3296   -9.5738    3.8915 LP  0  0  0  0  0  0  0  0  0  0  0  0  # atno 4297 bound_to 1298
    4.5050   -8.5153    4.2975 LP  0  0  0  0  0  0  0  0  0  0  0  0  # atno 4298 bound_to 1298
    0.6165   -8.2283    7.1223 LP  0  0  0  0  0  0  0  0  0  0  0  0  # atno 4299 bound_to 2456
    0.9852   -9.2876    8.3092 LP  0  0  0  0  0  0  0  0  0  0  0  0  # atno 4300 bound_to 2456
    2.0335   -7.8189    5.9074 LP  0  0  0  0  0  0  0  0  0  0  0  0  # atno 4301 bound_to 2510
    2.6861   -7.9244    4.4142 LP  0  0  0  0  0  0  0  0  0  0  0  0  # atno 4302 bound_to 2510
   -3.5625  -16.5558   13.9218 LP  0  0  0  0  0  0  0  0  0  0  0  0  # atno 4306 bound_to 3712
   -2.9331  -17.7888   13.0556 LP  0  0  0  0  0  0  0  0  0  0  0  0  # atno 4307 bound_to 3712
    1.4676  -20.4479    9.3787 LP  0  0  0  0  0  0  0  0  0  0  0  0  # atno 4314 bound_to 3832
    2.2980  -19.6956    8.1909 LP  0  0  0  0  0  0  0  0  0  0  0  0  # atno 4315 bound_to 3832
   -3.9091  -22.9654   11.2216 LP  0  0  0  0  0  0  0  0  0  0  0  0  # atno 4318 bound_to 3762
   -5.0612  -22.9952   10.0647 LP  0  0  0  0  0  0  0  0  0  0  0  0  # atno 4319 bound_to 3762
   -4.8765   -4.8582    7.6968 LP  0  0  0  0  0  0  0  0  0  0  0  0  # atno 4320 bound_to 2467
   -3.6521   -5.1028    8.7493 LP  0  0  0  0  0  0  0  0  0  0  0  0  # atno 4321 bound_to 2467

> <Gold.Score>
     Score     S(PLP)   S(hbond)     S(cho)   S(metal)  DE(clash)   DE(tors)     intcor
     41.40     -33.79       2.64       0.00       0.00       0.00       0.34       0.37

> <Gold.PLP.Fitness>
41.4030

> <Gold.PLP.PLP>
-33.7862

> <Gold.PLP.part.hbond>
-1.8210

> <Gold.PLP.part.metal>
0.0000

> <Gold.PLP.part.buried>
-4.2992

> <Gold.PLP.part.nonpolar>
-28.8135

> <Gold.PLP.part.repulsive>
0.0641

> <Gold.PLP.ligand.clash>
0.0000

> <Gold.PLP.ligand.torsion>
0.3441

> <Gold.PLP.Chemscore.Hbond>
2.6448

> <Gold.PLP.Chemscore.CHOScore>
0.0000

> <Gold.PLP.Chemscore.Metal>
0.0000

> <Gold.Chemscore.Hbonds>
donor molecule, donor type, donor heavy atom, donor atom, acceptor molecule, acceptor atom, score
      L1  H     9    32       P1  1223  0.64
      L1  H     9    33       P1  1227  2.00

> <Gold.PLP.Chemscore.Internal.Correction>
0.3705

