#       Name:                EN300-193626_i001
#       Creating user name   fsindt
#       Creation time:       Wed Mar  1 05:10:08 2023


#       File generated by GOLD software.
#

@<TRIPOS>MOLECULE
EN300-193626_i001
    34    34     1
SMALL
USER_CHARGES


@<TRIPOS>ATOM
      1 C1          -2.3858   1.4675   0.5495 C.3            1 <1>                0.0000
      2 C2          -2.2131   0.0886  -0.0902 C.3            1 <1>                0.0000
      3 C3          -2.4310  -0.9952   0.9675 C.3            1 <1>                0.0000
      4 C4          -3.2359  -0.0834  -1.2150 C.3            1 <1>                0.0000
      5 O5          -0.8930  -0.0263  -0.6251 O.3            1 <1>                0.0000
      6 C6           0.1432   0.1197   0.3480 C.3            1 <1>                0.0000
      7 C7           0.9378   1.4290   0.2100 C.3            1 <1>                0.0000
      8 C8           2.1973   0.6064   0.5288 C.3            1 <1>                0.0000
      9 N9           3.3670   0.9858  -0.2749 N.4            1 <1>                1.0000
     10 C10          1.4425  -0.6156  -0.0206 C.3            1 <1>                0.0000
     11 C11          1.6741  -1.8936   0.7883 C.3            1 <1>                0.0000
     12 C12          1.6240  -0.8224  -1.5256 C.3            1 <1>                0.0000
     13 H13         -1.6571   1.5901   1.3510 H              1 <1>                0.0000
     14 H14         -2.2306   2.2397  -0.2039 H              1 <1>                0.0000
     15 H15         -3.3928   1.5553   0.9577 H              1 <1>                0.0000
     16 H16         -3.4379  -0.9075   1.3755 H              1 <1>                0.0000
     17 H17         -2.3080  -1.9777   0.5116 H              1 <1>                0.0000
     18 H18         -1.7023  -0.8727   1.7688 H              1 <1>                0.0000
     19 H19         -3.0807   0.6887  -1.9685 H              1 <1>                0.0000
     20 H20         -3.1129  -1.0659  -1.6708 H              1 <1>                0.0000
     21 H21         -4.2429   0.0043  -0.8070 H              1 <1>                0.0000
     22 H22         -0.1991  -0.0783   1.3638 H              1 <1>                0.0000
     23 H23          0.9290   1.8407  -0.7993 H              1 <1>                0.0000
     24 H24          0.6953   2.1694   0.9723 H              1 <1>                0.0000
     25 H25          2.4187   0.5419   1.5941 H              1 <1>                0.0000
     26 H26          1.6762  -1.6551   1.8519 H              1 <1>                0.0000
     27 H27          0.8771  -2.6065   0.5774 H              1 <1>                0.0000
     28 H28          2.6342  -2.3296   0.5119 H              1 <1>                0.0000
     29 H29          2.5859  -1.2994  -1.7135 H              1 <1>                0.0000
     30 H30          0.8233  -1.4578  -1.9042 H              1 <1>                0.0000
     31 H31          1.5920   0.1427  -2.0314 H              1 <1>                0.0000
     32 H32          3.7843   1.8193   0.1112 H              1 <1>                0.0000
     33 H33          4.0413   0.2353  -0.2625 H              1 <1>                0.0000
     34 H34          3.0787   1.1632  -1.2254 H              1 <1>                0.0000
@<TRIPOS>BOND
    1    1    2 1     
    2    1   13 1     
    3    1   14 1     
    4    1   15 1     
    5    2    3 1     
    6    2    4 1     
    7    2    5 1     
    8    3   16 1     
    9    3   17 1     
   10    3   18 1     
   11    4   19 1     
   12    4   20 1     
   13    4   21 1     
   14    5    6 1     
   15    6    7 1     
   16    6   10 1     
   17    6   22 1     
   18    7    8 1     
   19    7   23 1     
   20    7   24 1     
   21    8    9 1     
   22    8   10 1     
   23    8   25 1     
   24    9   32 1     
   25    9   33 1     
   26    9   34 1     
   27   10   11 1     
   28   10   12 1     
   29   11   26 1     
   30   11   27 1     
   31   11   28 1     
   32   12   29 1     
   33   12   30 1     
   34   12   31 1     
@<TRIPOS>SUBSTRUCTURE
      1 ****           1
@<TRIPOS>SET
DONOR_HYDROGENS      STATIC     ATOMS    <user>   **** ""
3 32 33 34
ATOM$RED        STATIC     ATOMS    COLORGROUP SYSTEM
3 32 33 34
