#       Name:                EN300-193626_i001
#       Creating user name   fsindt
#       Creation time:       Wed Mar  1 05:10:18 2023


#       File generated by GOLD software.
#

@<TRIPOS>MOLECULE
EN300-193626_i001|amine_4|mol2|10283|dock15
    34    34     1
SMALL
USER_CHARGES


@<TRIPOS>ATOM
      1 C1          -0.9006 -10.3564  10.3213 C.3            1 <1>                0.0000
      2 C2          -1.6538 -11.6774  10.1530 C.3            1 <1>                0.0000
      3 C3          -1.3081 -12.6129  11.3132 C.3            1 <1>                0.0000
      4 C4          -3.1600 -11.4084  10.1461 C.3            1 <1>                0.0000
      5 O5          -1.2735 -12.2886   8.9186 O.3            1 <1>                0.0000
      6 C6           0.1206 -12.5880   8.8235 C.3            1 <1>                0.0000
      7 C7           0.9252 -11.5340   8.0446 C.3            1 <1>                0.0000
      8 C8           1.7039 -12.7039   7.4205 C.3            1 <1>                0.0000
      9 N9           1.9936 -12.5225   5.9918 N.4            1 <1>                1.0000
     10 C10          0.4636 -13.5715   7.6923 C.3            1 <1>                0.0000
     11 C11          0.7977 -14.9807   8.1858 C.3            1 <1>                0.0000
     12 C12         -0.5507 -13.5665   6.5470 C.3            1 <1>                0.0000
     13 H13          0.1725 -10.5480  10.3262 H              1 <1>                0.0000
     14 H14         -1.1469  -9.6898   9.4948 H              1 <1>                0.0000
     15 H15         -1.1907  -9.8901  11.2630 H              1 <1>                0.0000
     16 H16         -1.5982 -12.1467  12.2548 H              1 <1>                0.0000
     17 H17         -1.8448 -13.5541  11.1933 H              1 <1>                0.0000
     18 H18         -0.2351 -12.8047  11.3181 H              1 <1>                0.0000
     19 H19         -3.4063 -10.7419   9.3196 H              1 <1>                0.0000
     20 H20         -3.6966 -12.3496  10.0263 H              1 <1>                0.0000
     21 H21         -3.4501 -10.9421  11.0877 H              1 <1>                0.0000
     22 H22          0.5630 -12.8532   9.7838 H              1 <1>                0.0000
     23 H23          0.3286 -10.9733   7.3251 H              1 <1>                0.0000
     24 H24          1.5357 -10.8930   8.6806 H              1 <1>                0.0000
     25 H25          2.5808 -13.0010   7.9957 H              1 <1>                0.0000
     26 H26          1.6255 -14.9314   8.8931 H              1 <1>                0.0000
     27 H27         -0.0752 -15.4100   8.6775 H              1 <1>                0.0000
     28 H28          1.0809 -15.6049   7.3381 H              1 <1>                0.0000
     29 H29         -0.2160 -14.2447   5.7621 H              1 <1>                0.0000
     30 H30         -1.5214 -13.8932   6.9200 H              1 <1>                0.0000
     31 H31         -0.6375 -12.5578   6.1429 H              1 <1>                0.0000
     32 H32          1.7278 -11.5907   5.7105 H              1 <1>                0.0000
     33 H33          2.9807 -12.6541   5.8294 H              1 <1>                0.0000
     34 H34          1.4712 -13.1980   5.4543 H              1 <1>                0.0000
@<TRIPOS>BOND
    1    1    2 1     
    2    1   13 1     
    3    1   14 1     
    4    1   15 1     
    5    2    3 1     
    6    2    4 1     
    7    2    5 1     
    8    3   16 1     
    9    3   17 1     
   10    3   18 1     
   11    4   19 1     
   12    4   20 1     
   13    4   21 1     
   14    5    6 1     
   15    6    7 1     
   16    6   10 1     
   17    6   22 1     
   18    7    8 1     
   19    7   23 1     
   20    7   24 1     
   21    8    9 1     
   22    8   10 1     
   23    8   25 1     
   24    9   32 1     
   25    9   33 1     
   26    9   34 1     
   27   10   11 1     
   28   10   12 1     
   29   11   26 1     
   30   11   27 1     
   31   11   28 1     
   32   12   29 1     
   33   12   30 1     
   34   12   31 1     
@<TRIPOS>SUBSTRUCTURE
      1 ****           1
@<TRIPOS>SET
DONOR_HYDROGENS      STATIC     ATOMS    <user>   **** ""
3 32 33 34
ATOM$RED        STATIC     ATOMS    COLORGROUP SYSTEM
3 32 33 34
@<TRIPOS>COMMENT
> <Gold.Version>
2022.2.0

> <Gold.Id.Protein>
3pbl|protein|mol2

> <Gold.Protein.RotatedTorsions>
[ 1303 1298 1297 1294 ] final  173.17 input  179.99 | X-H torsion
[ 2461 2456 2455 2452 ] final -105.75 input   30.03 | X-H torsion
[ 2515 2510 2509 2506 ] final  118.68 input  -89.99 | X-H torsion
[ 3721 3712 3711 3710 ] final  -94.59 input -179.91 | X-H torsion
[ 3841 3832 3831 3830 ] final -173.34 input -179.91 | X-H torsion
[ 3767 3762 3761 3758 ] final   76.65 input  -89.99 | X-H torsion
[ 2472 2467 2466 2463 ] final  -59.94 input  -89.97 | X-H torsion

> <Gold.Protein.ActiveResidues>
 VAL82   VAL86   LEU89   PHE106  VAL107  ASP110  VAL111  MET112  CYS114  THR115 
 CYS181  SER182  ILE183  PHE188  VAL189  ILE190  SER192  SER193  SER196  TRP342 
 PHE345  PHE346  HIS349  VAL350  TYR365  THR369  GLY372  TYR373 

> <Gold.Protein.RotatedAtoms>
    4.8847   -8.9672    4.7374 H   0  0  0  0  0  0  0  0  0  0  0  0  # atno 1303 bound_to 1298
    0.4427   -9.0631    7.8957 H   0  0  0  0  0  0  0  0  0  0  0  0  # atno 2461 bound_to 2456
   -3.7266   -5.1875    8.9593 H   0  0  0  0  0  0  0  0  0  0  0  0  # atno 2472 bound_to 2467
    2.0393   -8.1452    6.0608 H   0  0  0  0  0  0  0  0  0  0  0  0  # atno 2515 bound_to 2510
   -3.0579  -16.8962   14.6546 H   0  0  0  0  0  0  0  0  0  0  0  0  # atno 3721 bound_to 3712
   -4.3486  -23.3316   10.3471 H   0  0  0  0  0  0  0  0  0  0  0  0  # atno 3767 bound_to 3762
    2.8963  -19.9758    8.3830 H   0  0  0  0  0  0  0  0  0  0  0  0  # atno 3841 bound_to 3832
    3.9159  -10.2709    4.5694 LP  0  0  0  0  0  0  0  0  0  0  0  0  # atno 4297 bound_to 1298
    3.5613   -8.8834    3.7846 LP  0  0  0  0  0  0  0  0  0  0  0  0  # atno 4298 bound_to 1298
    2.0279   -8.8129    8.1990 LP  0  0  0  0  0  0  0  0  0  0  0  0  # atno 4299 bound_to 2456
    1.2669   -7.9322    7.0536 LP  0  0  0  0  0  0  0  0  0  0  0  0  # atno 4300 bound_to 2456
    2.5498   -7.6429    4.5936 LP  0  0  0  0  0  0  0  0  0  0  0  0  # atno 4301 bound_to 2510
    2.7079   -9.2112    5.0204 LP  0  0  0  0  0  0  0  0  0  0  0  0  # atno 4302 bound_to 2510
   -3.3818  -17.0010   13.0856 LP  0  0  0  0  0  0  0  0  0  0  0  0  # atno 4306 bound_to 3712
   -2.6155  -18.2184   13.8585 LP  0  0  0  0  0  0  0  0  0  0  0  0  # atno 4307 bound_to 3712
    2.4725  -21.1533    9.3880 LP  0  0  0  0  0  0  0  0  0  0  0  0  # atno 4314 bound_to 3832
    1.4112  -19.9770    8.9919 LP  0  0  0  0  0  0  0  0  0  0  0  0  # atno 4315 bound_to 3832
   -5.5100  -22.2085   10.5852 LP  0  0  0  0  0  0  0  0  0  0  0  0  # atno 4318 bound_to 3762
   -4.2686  -22.3352   11.6385 LP  0  0  0  0  0  0  0  0  0  0  0  0  # atno 4319 bound_to 3762
   -5.3462   -5.3868    9.0203 LP  0  0  0  0  0  0  0  0  0  0  0  0  # atno 4320 bound_to 2467
   -4.6440   -4.8192    7.6596 LP  0  0  0  0  0  0  0  0  0  0  0  0  # atno 4321 bound_to 2467

> <Gold.Score>
     Score     S(PLP)   S(hbond)     S(cho)   S(metal)  DE(clash)   DE(tors)     intcor
     37.28     -35.13       0.81       0.00       0.00       0.00       0.33       0.37

> <Gold.PLP.Fitness>
37.2843

> <Gold.PLP.PLP>
-35.1275

> <Gold.PLP.part.hbond>
-0.8484

> <Gold.PLP.part.metal>
0.0000

> <Gold.PLP.part.buried>
0.3810

> <Gold.PLP.part.nonpolar>
-35.7282

> <Gold.PLP.part.repulsive>
0.1165

> <Gold.PLP.ligand.clash>
0.0000

> <Gold.PLP.ligand.torsion>
0.3256

> <Gold.PLP.Chemscore.Hbond>
0.8125

> <Gold.PLP.Chemscore.CHOScore>
0.0000

> <Gold.PLP.Chemscore.Metal>
0.0000

> <Gold.Chemscore.Hbonds>
donor molecule, donor type, donor heavy atom, donor atom, acceptor molecule, acceptor atom, score
      L1  H     9    33       P1  1235  0.81

> <Gold.PLP.Chemscore.Internal.Correction>
0.3705

