#       Name:                EN300-193626_i001
#       Creating user name   fsindt
#       Creation time:       Wed Mar  1 05:10:19 2023


#       File generated by GOLD software.
#

@<TRIPOS>MOLECULE
EN300-193626_i001|amine_4|mol2|10283|dock16
    34    34     1
SMALL
USER_CHARGES


@<TRIPOS>ATOM
      1 C1          -1.0536 -12.1301  11.3010 C.3            1 <1>                0.0000
      2 C2          -0.2229 -11.7093  10.0871 C.3            1 <1>                0.0000
      3 C3          -1.1513 -11.1783   8.9930 C.3            1 <1>                0.0000
      4 C4           0.7610 -10.6120  10.4981 C.3            1 <1>                0.0000
      5 O5           0.5013 -12.8371   9.5915 O.3            1 <1>                0.0000
      6 C6          -0.3294 -13.8959   9.1112 C.3            1 <1>                0.0000
      7 C7          -0.0459 -15.2522   9.7782 C.3            1 <1>                0.0000
      8 C8          -0.2356 -15.8858   8.3899 C.3            1 <1>                0.0000
      9 N9           0.7206 -16.9624   8.0988 N.4            1 <1>                1.0000
     10 C10          0.1707 -14.5250   7.8001 C.3            1 <1>                0.0000
     11 C11         -0.6494 -14.1192   6.5738 C.3            1 <1>                0.0000
     12 C12          1.6780 -14.3757   7.5845 C.3            1 <1>                0.0000
     13 H13         -1.7546 -12.9119  11.0082 H              1 <1>                0.0000
     14 H14         -0.3922 -12.5083  12.0805 H              1 <1>                0.0000
     15 H15         -1.6061 -11.2698  11.6791 H              1 <1>                0.0000
     16 H16         -1.7036 -10.3181   9.3711 H              1 <1>                0.0000
     17 H17         -0.5593 -10.8784   8.1282 H              1 <1>                0.0000
     18 H18         -1.8521 -11.9601   8.7002 H              1 <1>                0.0000
     19 H19          1.4224 -10.9902  11.2775 H              1 <1>                0.0000
     20 H20          1.3528 -10.3121   9.6332 H              1 <1>                0.0000
     21 H21          0.2086  -9.7517  10.8762 H              1 <1>                0.0000
     22 H22         -1.3865 -13.6301   9.0942 H              1 <1>                0.0000
     23 H23          0.9687 -15.3447  10.1655 H              1 <1>                0.0000
     24 H24         -0.8050 -15.5502  10.5015 H              1 <1>                0.0000
     25 H25         -1.2667 -16.1661   8.1750 H              1 <1>                0.0000
     26 H26         -1.6950 -14.3831   6.7323 H              1 <1>                0.0000
     27 H27         -0.5654 -13.0433   6.4203 H              1 <1>                0.0000
     28 H28         -0.2719 -14.6421   5.6950 H              1 <1>                0.0000
     29 H29          1.9664 -14.8888   6.6672 H              1 <1>                0.0000
     30 H30          1.9306 -13.3185   7.5044 H              1 <1>                0.0000
     31 H31          2.2108 -14.8136   8.4287 H              1 <1>                0.0000
     32 H32          1.5176 -16.8792   8.7119 H              1 <1>                0.0000
     33 H33          0.2756 -17.8561   8.2451 H              1 <1>                0.0000
     34 H34          1.0253 -16.8914   7.1396 H              1 <1>                0.0000
@<TRIPOS>BOND
    1    1    2 1     
    2    1   13 1     
    3    1   14 1     
    4    1   15 1     
    5    2    3 1     
    6    2    4 1     
    7    2    5 1     
    8    3   16 1     
    9    3   17 1     
   10    3   18 1     
   11    4   19 1     
   12    4   20 1     
   13    4   21 1     
   14    5    6 1     
   15    6    7 1     
   16    6   10 1     
   17    6   22 1     
   18    7    8 1     
   19    7   23 1     
   20    7   24 1     
   21    8    9 1     
   22    8   10 1     
   23    8   25 1     
   24    9   32 1     
   25    9   33 1     
   26    9   34 1     
   27   10   11 1     
   28   10   12 1     
   29   11   26 1     
   30   11   27 1     
   31   11   28 1     
   32   12   29 1     
   33   12   30 1     
   34   12   31 1     
@<TRIPOS>SUBSTRUCTURE
      1 ****           1
@<TRIPOS>SET
DONOR_HYDROGENS      STATIC     ATOMS    <user>   **** ""
3 32 33 34
ATOM$RED        STATIC     ATOMS    COLORGROUP SYSTEM
3 32 33 34
@<TRIPOS>COMMENT
> <Gold.Version>
2022.2.0

> <Gold.Id.Protein>
3pbl|protein|mol2

> <Gold.Protein.RotatedTorsions>
[ 1303 1298 1297 1294 ] final  -66.17 input  179.99 | X-H torsion
[ 2461 2456 2455 2452 ] final  116.13 input   30.03 | X-H torsion
[ 2515 2510 2509 2506 ] final   59.87 input  -89.99 | X-H torsion
[ 3721 3712 3711 3710 ] final  -75.50 input -179.91 | X-H torsion
[ 3841 3832 3831 3830 ] final -179.86 input -179.91 | X-H torsion
[ 3767 3762 3761 3758 ] final -165.83 input  -89.99 | X-H torsion
[ 2472 2467 2466 2463 ] final   13.89 input  -89.97 | X-H torsion

> <Gold.Protein.ActiveResidues>
 VAL82   VAL86   LEU89   PHE106  VAL107  ASP110  VAL111  MET112  CYS114  THR115 
 CYS181  SER182  ILE183  PHE188  VAL189  ILE190  SER192  SER193  SER196  TRP342 
 PHE345  PHE346  HIS349  VAL350  TYR365  THR369  GLY372  TYR373 

> <Gold.Protein.RotatedAtoms>
    3.5548   -8.8921    3.7841 H   0  0  0  0  0  0  0  0  0  0  0  0  # atno 1303 bound_to 1298
    2.1373   -8.5995    8.0240 H   0  0  0  0  0  0  0  0  0  0  0  0  # atno 2461 bound_to 2456
   -3.9474   -4.8324    7.9067 H   0  0  0  0  0  0  0  0  0  0  0  0  # atno 2472 bound_to 2467
    2.1507   -7.4615    5.4473 H   0  0  0  0  0  0  0  0  0  0  0  0  # atno 2515 bound_to 2510
   -2.9165  -17.1286   14.7469 H   0  0  0  0  0  0  0  0  0  0  0  0  # atno 3721 bound_to 3712
   -4.2396  -22.3630   11.6317 H   0  0  0  0  0  0  0  0  0  0  0  0  # atno 3767 bound_to 3762
    2.9565  -20.0484    8.4107 H   0  0  0  0  0  0  0  0  0  0  0  0  # atno 3841 bound_to 3832
    4.8828   -8.9581    4.7319 LP  0  0  0  0  0  0  0  0  0  0  0  0  # atno 4297 bound_to 1298
    3.9249  -10.2714    4.5759 LP  0  0  0  0  0  0  0  0  0  0  0  0  # atno 4298 bound_to 1298
    0.9814   -8.0104    7.0319 LP  0  0  0  0  0  0  0  0  0  0  0  0  # atno 4299 bound_to 2456
    0.6194   -9.1983    8.0923 LP  0  0  0  0  0  0  0  0  0  0  0  0  # atno 4300 bound_to 2456
    2.8234   -8.5021    4.3841 LP  0  0  0  0  0  0  0  0  0  0  0  0  # atno 4301 bound_to 2510
    2.3227   -9.0360    5.8438 LP  0  0  0  0  0  0  0  0  0  0  0  0  # atno 4302 bound_to 2510
   -3.4897  -16.7813   13.2879 LP  0  0  0  0  0  0  0  0  0  0  0  0  # atno 4306 bound_to 3712
   -2.6709  -18.1697   13.5496 LP  0  0  0  0  0  0  0  0  0  0  0  0  # atno 4307 bound_to 3712
    2.3755  -21.1388    9.4351 LP  0  0  0  0  0  0  0  0  0  0  0  0  # atno 4314 bound_to 3832
    1.4386  -19.9075    8.9128 LP  0  0  0  0  0  0  0  0  0  0  0  0  # atno 4315 bound_to 3832
   -4.3804  -23.3281   10.3219 LP  0  0  0  0  0  0  0  0  0  0  0  0  # atno 4318 bound_to 3762
   -5.5072  -22.1839   10.6178 LP  0  0  0  0  0  0  0  0  0  0  0  0  # atno 4319 bound_to 3762
   -4.2791   -5.4060    9.3992 LP  0  0  0  0  0  0  0  0  0  0  0  0  # atno 4320 bound_to 2467
   -5.4903   -5.1550    8.3331 LP  0  0  0  0  0  0  0  0  0  0  0  0  # atno 4321 bound_to 2467

> <Gold.Score>
     Score     S(PLP)   S(hbond)     S(cho)   S(metal)  DE(clash)   DE(tors)     intcor
     34.66     -29.64       2.00       0.00       0.00       0.00       0.68       0.37

> <Gold.PLP.Fitness>
34.6575

> <Gold.PLP.PLP>
-29.6390

> <Gold.PLP.part.hbond>
-1.0074

> <Gold.PLP.part.metal>
0.0000

> <Gold.PLP.part.buried>
-1.0889

> <Gold.PLP.part.nonpolar>
-27.9331

> <Gold.PLP.part.repulsive>
0.0000

> <Gold.PLP.ligand.clash>
0.0000

> <Gold.PLP.ligand.torsion>
0.6760

> <Gold.PLP.Chemscore.Hbond>
2.0000

> <Gold.PLP.Chemscore.CHOScore>
0.0000

> <Gold.PLP.Chemscore.Metal>
0.0000

> <Gold.Chemscore.Hbonds>
donor molecule, donor type, donor heavy atom, donor atom, acceptor molecule, acceptor atom, score
      L1  H     9    32       P1  1227  2.00

> <Gold.PLP.Chemscore.Internal.Correction>
0.3705

