#       Name:                EN300-193626_i001
#       Creating user name   fsindt
#       Creation time:       Wed Mar  1 05:10:12 2023


#       File generated by GOLD software.
#

@<TRIPOS>MOLECULE
EN300-193626_i001|amine_4|mol2|10283|dock6
    34    34     1
SMALL
USER_CHARGES


@<TRIPOS>ATOM
      1 C1           1.3784 -12.8836   7.1637 C.3            1 <1>                0.0000
      2 C2           0.4307 -13.9110   7.7858 C.3            1 <1>                0.0000
      3 C3          -0.7612 -14.1356   6.8531 C.3            1 <1>                0.0000
      4 C4           1.1742 -15.2324   7.9906 C.3            1 <1>                0.0000
      5 O5          -0.0358 -13.4265   9.0466 O.3            1 <1>                0.0000
      6 C6          -0.4810 -12.0690   9.0190 C.3            1 <1>                0.0000
      7 C7           0.5106 -11.0824   9.6580 C.3            1 <1>                0.0000
      8 C8          -0.7102 -10.3691  10.2627 C.3            1 <1>                0.0000
      9 N9          -0.5018  -9.9152  11.6442 N.4            1 <1>                1.0000
     10 C10         -1.4480 -11.7145  10.1610 C.3            1 <1>                0.0000
     11 C11         -2.9046 -11.5822   9.7118 C.3            1 <1>                0.0000
     12 C12         -1.2846 -12.5983  11.3991 C.3            1 <1>                0.0000
     13 H13          0.8487 -11.9421   7.0178 H              1 <1>                0.0000
     14 H14          2.2276 -12.7236   7.8281 H              1 <1>                0.0000
     15 H15          1.7343 -13.2531   6.2019 H              1 <1>                0.0000
     16 H16         -0.4054 -14.5051   5.8914 H              1 <1>                0.0000
     17 H17         -1.4364 -14.8677   7.2963 H              1 <1>                0.0000
     18 H18         -1.2910 -13.1943   6.7072 H              1 <1>                0.0000
     19 H19          2.0233 -15.0724   8.6550 H              1 <1>                0.0000
     20 H20          0.4990 -15.9644   8.4337 H              1 <1>                0.0000
     21 H21          1.5301 -15.6019   7.0288 H              1 <1>                0.0000
     22 H22         -0.8328 -11.7588   8.0350 H              1 <1>                0.0000
     23 H23          1.1625 -11.5393  10.4025 H              1 <1>                0.0000
     24 H24          1.0541 -10.4778   8.9318 H              1 <1>                0.0000
     25 H25         -1.1248  -9.5925   9.6201 H              1 <1>                0.0000
     26 H26         -2.9753 -10.8317   8.9244 H              1 <1>                0.0000
     27 H27         -3.2563 -12.5414   9.3321 H              1 <1>                0.0000
     28 H28         -3.5200 -11.2790  10.5589 H              1 <1>                0.0000
     29 H29         -1.9619 -12.2563  12.1817 H              1 <1>                0.0000
     30 H30         -1.5188 -13.6312  11.1417 H              1 <1>                0.0000
     31 H31         -0.2565 -12.5370  11.7561 H              1 <1>                0.0000
     32 H32         -0.7810 -10.6441  12.2835 H              1 <1>                0.0000
     33 H33          0.4742  -9.7007  11.7842 H              1 <1>                0.0000
     34 H34         -1.0554  -9.0888  11.8138 H              1 <1>                0.0000
@<TRIPOS>BOND
    1    1    2 1     
    2    1   13 1     
    3    1   14 1     
    4    1   15 1     
    5    2    3 1     
    6    2    4 1     
    7    2    5 1     
    8    3   16 1     
    9    3   17 1     
   10    3   18 1     
   11    4   19 1     
   12    4   20 1     
   13    4   21 1     
   14    5    6 1     
   15    6    7 1     
   16    6   10 1     
   17    6   22 1     
   18    7    8 1     
   19    7   23 1     
   20    7   24 1     
   21    8    9 1     
   22    8   10 1     
   23    8   25 1     
   24    9   32 1     
   25    9   33 1     
   26    9   34 1     
   27   10   11 1     
   28   10   12 1     
   29   11   26 1     
   30   11   27 1     
   31   11   28 1     
   32   12   29 1     
   33   12   30 1     
   34   12   31 1     
@<TRIPOS>SUBSTRUCTURE
      1 ****           1
@<TRIPOS>SET
DONOR_HYDROGENS      STATIC     ATOMS    <user>   **** ""
3 32 33 34
ATOM$RED        STATIC     ATOMS    COLORGROUP SYSTEM
3 32 33 34
@<TRIPOS>COMMENT
> <Gold.Version>
2022.2.0

> <Gold.Id.Protein>
3pbl|protein|mol2

> <Gold.Protein.RotatedTorsions>
[ 1303 1298 1297 1294 ] final   51.51 input  179.99 | X-H torsion
[ 2461 2456 2455 2452 ] final   61.76 input   30.03 | X-H torsion
[ 2515 2510 2509 2506 ] final   -1.27 input  -89.99 | X-H torsion
[ 3721 3712 3711 3710 ] final   37.18 input -179.91 | X-H torsion
[ 3841 3832 3831 3830 ] final -140.50 input -179.91 | X-H torsion
[ 3767 3762 3761 3758 ] final -136.67 input  -89.99 | X-H torsion
[ 2472 2467 2466 2463 ] final  -71.32 input  -89.97 | X-H torsion

> <Gold.Protein.ActiveResidues>
 VAL82   VAL86   LEU89   PHE106  VAL107  ASP110  VAL111  MET112  CYS114  THR115 
 CYS181  SER182  ILE183  PHE188  VAL189  ILE190  SER192  SER193  SER196  TRP342 
 PHE345  PHE346  HIS349  VAL350  TYR365  THR369  GLY372  TYR373 

> <Gold.Protein.RotatedAtoms>
    3.8937  -10.2687    4.5538 H   0  0  0  0  0  0  0  0  0  0  0  0  # atno 1303 bound_to 1298
    1.9351   -8.0432    7.3977 H   0  0  0  0  0  0  0  0  0  0  0  0  # atno 2461 bound_to 2456
   -3.8232   -5.2511    9.1062 H   0  0  0  0  0  0  0  0  0  0  0  0  # atno 2472 bound_to 2467
    2.5495   -7.6425    4.5945 H   0  0  0  0  0  0  0  0  0  0  0  0  # atno 2515 bound_to 2510
   -2.4989  -18.0208   13.6939 H   0  0  0  0  0  0  0  0  0  0  0  0  # atno 3721 bound_to 3712
   -4.6161  -22.0742   11.6167 H   0  0  0  0  0  0  0  0  0  0  0  0  # atno 3767 bound_to 3762
    2.5035  -19.6844    8.3654 H   0  0  0  0  0  0  0  0  0  0  0  0  # atno 3841 bound_to 3832
    3.5778   -8.8617    3.7877 LP  0  0  0  0  0  0  0  0  0  0  0  0  # atno 4297 bound_to 1298
    4.8908   -8.9906    4.7501 LP  0  0  0  0  0  0  0  0  0  0  0  0  # atno 4298 bound_to 1298
    0.3796   -8.5387    7.3496 LP  0  0  0  0  0  0  0  0  0  0  0  0  # atno 4299 bound_to 2456
    1.4233   -9.2261    8.4007 LP  0  0  0  0  0  0  0  0  0  0  0  0  # atno 4300 bound_to 2456
    2.7081   -9.2109    5.0197 LP  0  0  0  0  0  0  0  0  0  0  0  0  # atno 4301 bound_to 2510
    2.0391   -8.1460    6.0614 LP  0  0  0  0  0  0  0  0  0  0  0  0  # atno 4302 bound_to 2510
   -3.1740  -17.0947   14.8184 LP  0  0  0  0  0  0  0  0  0  0  0  0  # atno 4306 bound_to 3712
   -3.4686  -16.8263   13.2348 LP  0  0  0  0  0  0  0  0  0  0  0  0  # atno 4307 bound_to 3712
    2.8953  -21.0779    9.0587 LP  0  0  0  0  0  0  0  0  0  0  0  0  # atno 4314 bound_to 3832
    1.4421  -20.3889    9.3417 LP  0  0  0  0  0  0  0  0  0  0  0  0  # atno 4315 bound_to 3832
   -4.0656  -23.2895   10.6750 LP  0  0  0  0  0  0  0  0  0  0  0  0  # atno 4318 bound_to 3762
   -5.4456  -22.5111   10.2796 LP  0  0  0  0  0  0  0  0  0  0  0  0  # atno 4319 bound_to 3762
   -5.4355   -5.3399    8.8629 LP  0  0  0  0  0  0  0  0  0  0  0  0  # atno 4320 bound_to 2467
   -4.4581   -4.8026    7.6702 LP  0  0  0  0  0  0  0  0  0  0  0  0  # atno 4321 bound_to 2467

> <Gold.Score>
     Score     S(PLP)   S(hbond)     S(cho)   S(metal)  DE(clash)   DE(tors)     intcor
     39.27     -40.01       0.00       0.00       0.00       0.00       0.55       0.37

> <Gold.PLP.Fitness>
39.2746

> <Gold.PLP.PLP>
-40.0087

> <Gold.PLP.part.hbond>
0.0000

> <Gold.PLP.part.metal>
0.0000

> <Gold.PLP.part.buried>
-1.8997

> <Gold.PLP.part.nonpolar>
-39.0070

> <Gold.PLP.part.repulsive>
0.0504

> <Gold.PLP.ligand.clash>
0.0000

> <Gold.PLP.ligand.torsion>
0.5532

> <Gold.PLP.Chemscore.Hbond>
0.0000

> <Gold.PLP.Chemscore.CHOScore>
0.0000

> <Gold.PLP.Chemscore.Metal>
0.0000

> <Gold.PLP.Chemscore.Internal.Correction>
0.3723

