#       Name:                EN300-193626_i001
#       Creating user name   fsindt
#       Creation time:       Wed Mar  1 05:10:12 2023


#       File generated by GOLD software.
#

@<TRIPOS>MOLECULE
EN300-193626_i001|amine_4|mol2|10283|dock7
    34    34     1
SMALL
USER_CHARGES


@<TRIPOS>ATOM
      1 C1          -1.9129  -9.6233   9.4635 C.3            1 <1>                0.0000
      2 C2          -2.1925 -11.0026  10.0637 C.3            1 <1>                0.0000
      3 C3          -1.5905 -11.0791  11.4682 C.3            1 <1>                0.0000
      4 C4          -3.7038 -11.2271  10.1436 C.3            1 <1>                0.0000
      5 O5          -1.6043 -12.0095   9.2378 O.3            1 <1>                0.0000
      6 C6          -0.1831 -11.9120   9.1254 C.3            1 <1>                0.0000
      7 C7           0.2833 -11.0342   7.9519 C.3            1 <1>                0.0000
      8 C8           1.3880 -12.0770   7.7135 C.3            1 <1>                0.0000
      9 N9           1.6364 -12.3569   6.2929 N.4            1 <1>                1.0000
     10 C10          0.4596 -13.0996   8.3897 C.3            1 <1>                0.0000
     11 C11          1.1911 -14.0719   9.3174 C.3            1 <1>                0.0000
     12 C12         -0.4884 -13.8038   7.4170 C.3            1 <1>                0.0000
     13 H13         -0.8361  -9.4632   9.4066 H              1 <1>                0.0000
     14 H14         -2.3418  -9.5687   8.4629 H              1 <1>                0.0000
     15 H15         -2.3615  -8.8551  10.0935 H              1 <1>                0.0000
     16 H16         -2.0391 -10.3110  12.0981 H              1 <1>                0.0000
     17 H17         -1.7897 -12.0618  11.8958 H              1 <1>                0.0000
     18 H18         -0.5138 -10.9191  11.4113 H              1 <1>                0.0000
     19 H19         -4.1326 -11.1726   9.1430 H              1 <1>                0.0000
     20 H20         -3.9029 -12.2098  10.5712 H              1 <1>                0.0000
     21 H21         -4.1525 -10.4590  10.7735 H              1 <1>                0.0000
     22 H22          0.3007 -11.6691  10.0715 H              1 <1>                0.0000
     23 H23         -0.4404 -10.9712   7.1393 H              1 <1>                0.0000
     24 H24          0.6620 -10.0594   8.2594 H              1 <1>                0.0000
     25 H25          2.3029 -11.8795   8.2722 H              1 <1>                0.0000
     26 H26          1.9530 -13.5331   9.8807 H              1 <1>                0.0000
     27 H27          0.4779 -14.5209  10.0085 H              1 <1>                0.0000
     28 H28          1.6639 -14.8544   8.7237 H              1 <1>                0.0000
     29 H29          0.0485 -14.5965   6.8961 H              1 <1>                0.0000
     30 H30         -1.3234 -14.2334   7.9705 H              1 <1>                0.0000
     31 H31         -0.8657 -13.0831   6.6915 H              1 <1>                0.0000
     32 H32          1.7639 -13.3492   6.1630 H              1 <1>                0.0000
     33 H33          0.8482 -12.0446   5.7459 H              1 <1>                0.0000
     34 H34          2.4676 -11.8690   5.9944 H              1 <1>                0.0000
@<TRIPOS>BOND
    1    1    2 1     
    2    1   13 1     
    3    1   14 1     
    4    1   15 1     
    5    2    3 1     
    6    2    4 1     
    7    2    5 1     
    8    3   16 1     
    9    3   17 1     
   10    3   18 1     
   11    4   19 1     
   12    4   20 1     
   13    4   21 1     
   14    5    6 1     
   15    6    7 1     
   16    6   10 1     
   17    6   22 1     
   18    7    8 1     
   19    7   23 1     
   20    7   24 1     
   21    8    9 1     
   22    8   10 1     
   23    8   25 1     
   24    9   32 1     
   25    9   33 1     
   26    9   34 1     
   27   10   11 1     
   28   10   12 1     
   29   11   26 1     
   30   11   27 1     
   31   11   28 1     
   32   12   29 1     
   33   12   30 1     
   34   12   31 1     
@<TRIPOS>SUBSTRUCTURE
      1 ****           1
@<TRIPOS>SET
DONOR_HYDROGENS      STATIC     ATOMS    <user>   **** ""
3 32 33 34
ATOM$RED        STATIC     ATOMS    COLORGROUP SYSTEM
3 32 33 34
@<TRIPOS>COMMENT
> <Gold.Version>
2022.2.0

> <Gold.Id.Protein>
3pbl|protein|mol2

> <Gold.Protein.RotatedTorsions>
[ 1303 1298 1297 1294 ] final  -82.07 input  179.99 | X-H torsion
[ 2461 2456 2455 2452 ] final   14.60 input   30.03 | X-H torsion
[ 2515 2510 2509 2506 ] final  -69.48 input  -89.99 | X-H torsion
[ 3721 3712 3711 3710 ] final    9.36 input -179.91 | X-H torsion
[ 3841 3832 3831 3830 ] final   25.44 input -179.91 | X-H torsion
[ 3767 3762 3761 3758 ] final  126.25 input  -89.99 | X-H torsion
[ 2472 2467 2466 2463 ] final -141.85 input  -89.97 | X-H torsion

> <Gold.Protein.ActiveResidues>
 VAL82   VAL86   LEU89   PHE106  VAL107  ASP110  VAL111  MET112  CYS114  THR115 
 CYS181  SER182  ILE183  PHE188  VAL189  ILE190  SER192  SER193  SER196  TRP342 
 PHE345  PHE346  HIS349  VAL350  TYR365  THR369  GLY372  TYR373 

> <Gold.Protein.RotatedAtoms>
    3.7279   -8.7028    3.8309 H   0  0  0  0  0  0  0  0  0  0  0  0  # atno 1303 bound_to 1298
    1.2726   -7.9311    7.0545 H   0  0  0  0  0  0  0  0  0  0  0  0  # atno 2461 bound_to 2456
   -4.8546   -5.4640    9.3821 H   0  0  0  0  0  0  0  0  0  0  0  0  # atno 2472 bound_to 2467
    2.8344   -8.6473    4.4328 H   0  0  0  0  0  0  0  0  0  0  0  0  # atno 2515 bound_to 2510
   -2.4729  -18.0019   14.1091 H   0  0  0  0  0  0  0  0  0  0  0  0  # atno 3721 bound_to 3712
   -3.9295  -23.1386   10.9896 H   0  0  0  0  0  0  0  0  0  0  0  0  # atno 3767 bound_to 3762
    2.0087  -20.7462    9.6225 H   0  0  0  0  0  0  0  0  0  0  0  0  # atno 3841 bound_to 3832
    4.9121   -9.1922    4.8431 LP  0  0  0  0  0  0  0  0  0  0  0  0  # atno 4297 bound_to 1298
    3.7223  -10.2266    4.4177 LP  0  0  0  0  0  0  0  0  0  0  0  0  # atno 4298 bound_to 1298
    0.4403   -9.0599    7.8915 LP  0  0  0  0  0  0  0  0  0  0  0  0  # atno 4299 bound_to 2456
    2.0249   -8.8170    8.2020 LP  0  0  0  0  0  0  0  0  0  0  0  0  # atno 4300 bound_to 2456
    2.2610   -8.9289    5.9354 LP  0  0  0  0  0  0  0  0  0  0  0  0  # atno 4301 bound_to 2510
    2.2011   -7.4227    5.3075 LP  0  0  0  0  0  0  0  0  0  0  0  0  # atno 4302 bound_to 2510
   -3.3844  -16.7652   14.5755 LP  0  0  0  0  0  0  0  0  0  0  0  0  # atno 4306 bound_to 3712
   -3.2883  -17.1777   12.9984 LP  0  0  0  0  0  0  0  0  0  0  0  0  # atno 4307 bound_to 3712
    1.7854  -19.6522    8.4694 LP  0  0  0  0  0  0  0  0  0  0  0  0  # atno 4314 bound_to 3832
    3.1236  -20.5881    8.4788 LP  0  0  0  0  0  0  0  0  0  0  0  0  # atno 4315 bound_to 3832
   -5.2636  -22.7934   10.1134 LP  0  0  0  0  0  0  0  0  0  0  0  0  # atno 4318 bound_to 3762
   -4.9340  -21.9433   11.4681 LP  0  0  0  0  0  0  0  0  0  0  0  0  # atno 4319 bound_to 3762
   -5.2057   -4.9569    7.8702 LP  0  0  0  0  0  0  0  0  0  0  0  0  # atno 4320 bound_to 2467
   -3.6567   -4.9727    8.3870 LP  0  0  0  0  0  0  0  0  0  0  0  0  # atno 4321 bound_to 2467

> <Gold.Score>
     Score     S(PLP)   S(hbond)     S(cho)   S(metal)  DE(clash)   DE(tors)     intcor
     42.97     -43.00       0.00       0.00       0.00       0.00       0.20       0.37

> <Gold.PLP.Fitness>
42.9672

> <Gold.PLP.PLP>
-43.0026

> <Gold.PLP.part.hbond>
0.0000

> <Gold.PLP.part.metal>
0.0000

> <Gold.PLP.part.buried>
-0.5161

> <Gold.PLP.part.nonpolar>
-43.8762

> <Gold.PLP.part.repulsive>
0.0551

> <Gold.PLP.ligand.clash>
0.0000

> <Gold.PLP.ligand.torsion>
0.2038

> <Gold.PLP.Chemscore.Hbond>
0.0000

> <Gold.PLP.Chemscore.CHOScore>
0.0000

> <Gold.PLP.Chemscore.Metal>
0.0000

> <Gold.PLP.Chemscore.Internal.Correction>
0.3723

