#       Name:                EN300-193626_i001
#       Creating user name   fsindt
#       Creation time:       Wed Mar  1 05:10:10 2023


#       File generated by GOLD software.
#

@<TRIPOS>MOLECULE
EN300-193626_i001|amine_4|mol2|10283|dock2
    34    34     1
SMALL
USER_CHARGES


@<TRIPOS>ATOM
      1 C1          -3.2883 -11.4843   9.6040 C.3            1 <1>                0.0000
      2 C2          -1.9223 -10.9169   9.9949 C.3            1 <1>                0.0000
      3 C3          -1.9472  -9.3926   9.8652 C.3            1 <1>                0.0000
      4 C4          -1.6058 -11.3006  11.4418 C.3            1 <1>                0.0000
      5 O5          -0.9189 -11.4523   9.1297 O.3            1 <1>                0.0000
      6 C6          -0.8395 -12.8790   9.1447 C.3            1 <1>                0.0000
      7 C7           0.1144 -13.4317  10.2169 C.3            1 <1>                0.0000
      8 C8           0.5644 -14.4656   9.1712 C.3            1 <1>                0.0000
      9 N9           2.0102 -14.7252   9.1847 N.4            1 <1>                1.0000
     10 C10          0.1303 -13.4530   8.0984 C.3            1 <1>                0.0000
     11 C11         -0.5712 -14.0938   6.8991 C.3            1 <1>                0.0000
     12 C12          1.2379 -12.4798   7.6902 C.3            1 <1>                0.0000
     13 H13         -3.5139 -11.2110   8.5731 H              1 <1>                0.0000
     14 H14         -3.2707 -12.5703   9.6964 H              1 <1>                0.0000
     15 H15         -4.0538 -11.0759  10.2639 H              1 <1>                0.0000
     16 H16         -2.7126  -8.9843  10.5251 H              1 <1>                0.0000
     17 H17         -0.9739  -8.9884  10.1437 H              1 <1>                0.0000
     18 H18         -2.1726  -9.1193   8.8344 H              1 <1>                0.0000
     19 H19         -1.5881 -12.3865  11.5342 H              1 <1>                0.0000
     20 H20         -0.6326 -10.8963  11.7203 H              1 <1>                0.0000
     21 H21         -2.3712 -10.8922  12.1017 H              1 <1>                0.0000
     22 H22         -1.8189 -13.3575   9.1432 H              1 <1>                0.0000
     23 H23          0.8992 -12.7324  10.5053 H              1 <1>                0.0000
     24 H24         -0.3981 -13.8709  11.0727 H              1 <1>                0.0000
     25 H25         -0.0297 -15.3794   9.1770 H              1 <1>                0.0000
     26 H26         -1.2424 -14.8789   7.2474 H              1 <1>                0.0000
     27 H27         -1.1448 -13.3356   6.3659 H              1 <1>                0.0000
     28 H28          0.1738 -14.5236   6.2293 H              1 <1>                0.0000
     29 H29          1.9137 -12.9712   6.9903 H              1 <1>                0.0000
     30 H30          0.7955 -11.6046   7.2144 H              1 <1>                0.0000
     31 H31          1.7938 -12.1701   8.5752 H              1 <1>                0.0000
     32 H32          2.4684 -14.0458   9.7732 H              1 <1>                0.0000
     33 H33          2.1821 -15.6521   9.5443 H              1 <1>                0.0000
     34 H34          2.3731 -14.6560   8.2457 H              1 <1>                0.0000
@<TRIPOS>BOND
    1    1    2 1     
    2    1   13 1     
    3    1   14 1     
    4    1   15 1     
    5    2    3 1     
    6    2    4 1     
    7    2    5 1     
    8    3   16 1     
    9    3   17 1     
   10    3   18 1     
   11    4   19 1     
   12    4   20 1     
   13    4   21 1     
   14    5    6 1     
   15    6    7 1     
   16    6   10 1     
   17    6   22 1     
   18    7    8 1     
   19    7   23 1     
   20    7   24 1     
   21    8    9 1     
   22    8   10 1     
   23    8   25 1     
   24    9   32 1     
   25    9   33 1     
   26    9   34 1     
   27   10   11 1     
   28   10   12 1     
   29   11   26 1     
   30   11   27 1     
   31   11   28 1     
   32   12   29 1     
   33   12   30 1     
   34   12   31 1     
@<TRIPOS>SUBSTRUCTURE
      1 ****           1
@<TRIPOS>SET
DONOR_HYDROGENS      STATIC     ATOMS    <user>   **** ""
3 32 33 34
ATOM$RED        STATIC     ATOMS    COLORGROUP SYSTEM
3 32 33 34
@<TRIPOS>COMMENT
> <Gold.Version>
2022.2.0

> <Gold.Id.Protein>
3pbl|protein|mol2

> <Gold.Protein.RotatedTorsions>
[ 1303 1298 1297 1294 ] final  -99.08 input  179.99 | X-H torsion
[ 2461 2456 2455 2452 ] final -179.72 input   30.03 | X-H torsion
[ 2515 2510 2509 2506 ] final  100.15 input  -89.99 | X-H torsion
[ 3721 3712 3711 3710 ] final -119.82 input -179.91 | X-H torsion
[ 3841 3832 3831 3830 ] final  145.20 input -179.91 | X-H torsion
[ 3767 3762 3761 3758 ] final  -76.87 input  -89.99 | X-H torsion
[ 2472 2467 2466 2463 ] final    4.56 input  -89.97 | X-H torsion

> <Gold.Protein.ActiveResidues>
 VAL82   VAL86   LEU89   PHE106  VAL107  ASP110  VAL111  MET112  CYS114  THR115 
 CYS181  SER182  ILE183  PHE188  VAL189  ILE190  SER192  SER193  SER196  TRP342 
 PHE345  PHE346  HIS349  VAL350  TYR365  THR369  GLY372  TYR373 

> <Gold.Protein.RotatedAtoms>
    3.9460   -8.5575    3.9261 H   0  0  0  0  0  0  0  0  0  0  0  0  # atno 1303 bound_to 1298
    1.4464   -9.2187    8.4014 H   0  0  0  0  0  0  0  0  0  0  0  0  # atno 2461 bound_to 2456
   -3.8423   -4.8599    8.0150 H   0  0  0  0  0  0  0  0  0  0  0  0  # atno 2472 bound_to 2467
    2.0306   -7.8673    5.9393 H   0  0  0  0  0  0  0  0  0  0  0  0  # atno 2515 bound_to 2510
   -3.2165  -16.6578   14.4074 H   0  0  0  0  0  0  0  0  0  0  0  0  # atno 3721 bound_to 3712
   -5.3509  -21.9593   11.0417 H   0  0  0  0  0  0  0  0  0  0  0  0  # atno 3767 bound_to 3762
    3.1312  -20.4619    8.6729 H   0  0  0  0  0  0  0  0  0  0  0  0  # atno 3841 bound_to 3832
    4.8765   -9.4575    4.9213 LP  0  0  0  0  0  0  0  0  0  0  0  0  # atno 4297 bound_to 1298
    3.5397  -10.1067    4.2443 LP  0  0  0  0  0  0  0  0  0  0  0  0  # atno 4298 bound_to 1298
    1.9191   -8.0333    7.3822 LP  0  0  0  0  0  0  0  0  0  0  0  0  # atno 4299 bound_to 2456
    0.3723   -8.5563    7.3647 LP  0  0  0  0  0  0  0  0  0  0  0  0  # atno 4300 bound_to 2456
    2.6664   -7.8742    4.4354 LP  0  0  0  0  0  0  0  0  0  0  0  0  # atno 4301 bound_to 2510
    2.5999   -9.2578    5.3003 LP  0  0  0  0  0  0  0  0  0  0  0  0  # atno 4302 bound_to 2510
   -3.1920  -17.3517   12.9598 LP  0  0  0  0  0  0  0  0  0  0  0  0  # atno 4306 bound_to 3712
   -2.6222  -18.1429   14.2697 LP  0  0  0  0  0  0  0  0  0  0  0  0  # atno 4307 bound_to 3712
    1.8610  -20.9078    9.5469 LP  0  0  0  0  0  0  0  0  0  0  0  0  # atno 4314 bound_to 3832
    1.7514  -19.6608    8.4983 LP  0  0  0  0  0  0  0  0  0  0  0  0  # atno 4315 bound_to 3832
   -3.9718  -22.7416   11.4329 LP  0  0  0  0  0  0  0  0  0  0  0  0  # atno 4318 bound_to 3762
   -4.8048  -23.1739   10.0966 LP  0  0  0  0  0  0  0  0  0  0  0  0  # atno 4319 bound_to 3762
   -4.4274   -5.4326    9.4278 LP  0  0  0  0  0  0  0  0  0  0  0  0  # atno 4320 bound_to 2467
   -5.4471   -5.1010    8.1962 LP  0  0  0  0  0  0  0  0  0  0  0  0  # atno 4321 bound_to 2467

> <Gold.Score>
     Score     S(PLP)   S(hbond)     S(cho)   S(metal)  DE(clash)   DE(tors)     intcor
     47.18     -41.19       2.00       0.00       0.00       0.00       0.19       0.37

> <Gold.PLP.Fitness>
47.1784

> <Gold.PLP.PLP>
-41.1856

> <Gold.PLP.part.hbond>
-1.0000

> <Gold.PLP.part.metal>
0.0000

> <Gold.PLP.part.buried>
-2.0838

> <Gold.PLP.part.nonpolar>
-38.5167

> <Gold.PLP.part.repulsive>
0.0772

> <Gold.PLP.ligand.clash>
0.0000

> <Gold.PLP.ligand.torsion>
0.1897

> <Gold.PLP.Chemscore.Hbond>
2.0000

> <Gold.PLP.Chemscore.CHOScore>
0.0000

> <Gold.PLP.Chemscore.Metal>
0.0000

> <Gold.Chemscore.Hbonds>
donor molecule, donor type, donor heavy atom, donor atom, acceptor molecule, acceptor atom, score
      L1  H     9    33       P1  1227  2.00

> <Gold.PLP.Chemscore.Internal.Correction>
0.3723

