#       Name:                EN300-193626_i001
#       Creating user name   fsindt
#       Creation time:       Wed Mar  1 05:10:09 2023


#       File generated by GOLD software.
#

@<TRIPOS>MOLECULE
EN300-193626_i001|amine_4|mol2|10283|dock1
    34    34     1
SMALL
USER_CHARGES


@<TRIPOS>ATOM
      1 C1          -1.5240 -12.5251  11.1074 C.3            1 <1>                0.0000
      2 C2          -1.7562 -11.4728  10.0213 C.3            1 <1>                0.0000
      3 C3          -3.2493 -11.1504   9.9344 C.3            1 <1>                0.0000
      4 C4          -0.9792 -10.2014  10.3687 C.3            1 <1>                0.0000
      5 O5          -1.3040 -11.9787   8.7636 O.3            1 <1>                0.0000
      6 C6           0.1073 -12.1924   8.6965 C.3            1 <1>                0.0000
      7 C7           0.6690 -12.1522   7.2655 C.3            1 <1>                0.0000
      8 C8           1.5691 -13.3317   7.6699 C.3            1 <1>                0.0000
      9 N9           1.7087 -14.3516   6.6219 N.4            1 <1>                1.0000
     10 C10          0.5078 -13.6767   8.7279 C.3            1 <1>                0.0000
     11 C11          1.0994 -14.1237  10.0662 C.3            1 <1>                0.0000
     12 C12         -0.5848 -14.6174   8.2159 C.3            1 <1>                0.0000
     13 H13         -2.0775 -13.4310  10.8600 H              1 <1>                0.0000
     14 H14         -0.4602 -12.7548  11.1694 H              1 <1>                0.0000
     15 H15         -1.8689 -12.1392  12.0668 H              1 <1>                0.0000
     16 H16         -3.5941 -10.7646  10.8937 H              1 <1>                0.0000
     17 H17         -3.4146 -10.4007   9.1606 H              1 <1>                0.0000
     18 H18         -3.8028 -12.0562   9.6869 H              1 <1>                0.0000
     19 H19          0.0845 -10.4310  10.4306 H              1 <1>                0.0000
     20 H20         -1.1446  -9.4517   9.5949 H              1 <1>                0.0000
     21 H21         -1.3240  -9.8155  11.3280 H              1 <1>                0.0000
     22 H22          0.6630 -11.5737   9.4012 H              1 <1>                0.0000
     23 H23         -0.0655 -12.4055   6.5009 H              1 <1>                0.0000
     24 H24          1.2205 -11.2399   7.0384 H              1 <1>                0.0000
     25 H25          2.5259 -13.0258   8.0928 H              1 <1>                0.0000
     26 H26          1.9640 -13.5049  10.3062 H              1 <1>                0.0000
     27 H27          0.3483 -14.0178  10.8490 H              1 <1>                0.0000
     28 H28          1.4073 -15.1671   9.9970 H              1 <1>                0.0000
     29 H29         -0.2125 -15.6418   8.2174 H              1 <1>                0.0000
     30 H30         -1.4580 -14.5471   8.8645 H              1 <1>                0.0000
     31 H31         -0.8625 -14.3333   7.2008 H              1 <1>                0.0000
     32 H32          2.6262 -14.7677   6.6777 H              1 <1>                0.0000
     33 H33          1.0073 -15.0652   6.7516 H              1 <1>                0.0000
     34 H34          1.5885 -13.9224   5.7167 H              1 <1>                0.0000
@<TRIPOS>BOND
    1    1    2 1     
    2    1   13 1     
    3    1   14 1     
    4    1   15 1     
    5    2    3 1     
    6    2    4 1     
    7    2    5 1     
    8    3   16 1     
    9    3   17 1     
   10    3   18 1     
   11    4   19 1     
   12    4   20 1     
   13    4   21 1     
   14    5    6 1     
   15    6    7 1     
   16    6   10 1     
   17    6   22 1     
   18    7    8 1     
   19    7   23 1     
   20    7   24 1     
   21    8    9 1     
   22    8   10 1     
   23    8   25 1     
   24    9   32 1     
   25    9   33 1     
   26    9   34 1     
   27   10   11 1     
   28   10   12 1     
   29   11   26 1     
   30   11   27 1     
   31   11   28 1     
   32   12   29 1     
   33   12   30 1     
   34   12   31 1     
@<TRIPOS>SUBSTRUCTURE
      1 ****           1
@<TRIPOS>SET
DONOR_HYDROGENS      STATIC     ATOMS    <user>   **** ""
3 32 33 34
ATOM$RED        STATIC     ATOMS    COLORGROUP SYSTEM
3 32 33 34
@<TRIPOS>COMMENT
> <Gold.Version>
2022.2.0

> <Gold.Id.Protein>
3pbl|protein|mol2

> <Gold.Protein.RotatedTorsions>
[ 1303 1298 1297 1294 ] final -127.38 input  179.99 | X-H torsion
[ 2461 2456 2455 2452 ] final -136.86 input   30.03 | X-H torsion
[ 2515 2510 2509 2506 ] final   64.16 input  -89.99 | X-H torsion
[ 3721 3712 3711 3710 ] final  -12.68 input -179.91 | X-H torsion
[ 3841 3832 3831 3830 ] final -124.42 input -179.91 | X-H torsion
[ 3767 3762 3761 3758 ] final    5.04 input  -89.99 | X-H torsion
[ 2472 2467 2466 2463 ] final -157.19 input  -89.97 | X-H torsion

> <Gold.Protein.ActiveResidues>
 VAL82   VAL86   LEU89   PHE106  VAL107  ASP110  VAL111  MET112  CYS114  THR115 
 CYS181  SER182  ILE183  PHE188  VAL189  ILE190  SER192  SER193  SER196  TRP342 
 PHE345  PHE346  HIS349  VAL350  TYR365  THR369  GLY372  TYR373 

> <Gold.Protein.RotatedAtoms>
    4.3327   -8.4774    4.1637 H   0  0  0  0  0  0  0  0  0  0  0  0  # atno 1303 bound_to 1298
    0.7853   -9.2597    8.2116 H   0  0  0  0  0  0  0  0  0  0  0  0  # atno 2461 bound_to 2456
   -5.0811   -5.4497    9.2734 H   0  0  0  0  0  0  0  0  0  0  0  0  # atno 2472 bound_to 2467
    2.1299   -7.4870    5.5096 H   0  0  0  0  0  0  0  0  0  0  0  0  # atno 2515 bound_to 2510
   -2.5235  -17.8671   14.4073 H   0  0  0  0  0  0  0  0  0  0  0  0  # atno 3721 bound_to 3712
   -5.2754  -22.7783   10.1188 H   0  0  0  0  0  0  0  0  0  0  0  0  # atno 3767 bound_to 3762
    2.2839  -19.6061    8.4312 H   0  0  0  0  0  0  0  0  0  0  0  0  # atno 3841 bound_to 3832
    4.6749   -9.8715    4.9419 LP  0  0  0  0  0  0  0  0  0  0  0  0  # atno 4297 bound_to 1298
    3.3545   -9.7728    3.9860 LP  0  0  0  0  0  0  0  0  0  0  0  0  # atno 4298 bound_to 1298
    2.1612   -8.4453    7.8783 LP  0  0  0  0  0  0  0  0  0  0  0  0  # atno 4299 bound_to 2456
    0.7911   -8.1033    7.0583 LP  0  0  0  0  0  0  0  0  0  0  0  0  # atno 4300 bound_to 2456
    2.8149   -8.4337    4.3693 LP  0  0  0  0  0  0  0  0  0  0  0  0  # atno 4301 bound_to 2510
    2.3521   -9.0789    5.7962 LP  0  0  0  0  0  0  0  0  0  0  0  0  # atno 4302 bound_to 2510
   -3.5043  -16.6034   14.2698 LP  0  0  0  0  0  0  0  0  0  0  0  0  # atno 4306 bound_to 3712
   -3.1099  -17.4950   12.9598 LP  0  0  0  0  0  0  0  0  0  0  0  0  # atno 4307 bound_to 3712
    3.0345  -20.9571    8.8643 LP  0  0  0  0  0  0  0  0  0  0  0  0  # atno 4314 bound_to 3832
    1.5565  -20.6003    9.4600 LP  0  0  0  0  0  0  0  0  0  0  0  0  # atno 4315 bound_to 3832
   -4.9179  -21.9476   11.4785 LP  0  0  0  0  0  0  0  0  0  0  0  0  # atno 4318 bound_to 3762
   -3.9343  -23.1492   10.9735 LP  0  0  0  0  0  0  0  0  0  0  0  0  # atno 4319 bound_to 3762
   -5.0001   -4.8882    7.7422 LP  0  0  0  0  0  0  0  0  0  0  0  0  # atno 4320 bound_to 2467
   -3.6358   -5.0557    8.6237 LP  0  0  0  0  0  0  0  0  0  0  0  0  # atno 4321 bound_to 2467

> <Gold.Score>
     Score     S(PLP)   S(hbond)     S(cho)   S(metal)  DE(clash)   DE(tors)     intcor
     41.17     -38.78       1.00       0.00       0.00       0.00       0.49       0.38

> <Gold.PLP.Fitness>
41.1730

> <Gold.PLP.PLP>
-38.7759

> <Gold.PLP.part.hbond>
-1.0000

> <Gold.PLP.part.metal>
0.0000

> <Gold.PLP.part.buried>
-1.0266

> <Gold.PLP.part.nonpolar>
-37.5970

> <Gold.PLP.part.repulsive>
0.0771

> <Gold.PLP.ligand.clash>
0.0000

> <Gold.PLP.ligand.torsion>
0.4898

> <Gold.PLP.Chemscore.Hbond>
1.0000

> <Gold.PLP.Chemscore.CHOScore>
0.0000

> <Gold.PLP.Chemscore.Metal>
0.0000

> <Gold.Chemscore.Hbonds>
donor molecule, donor type, donor heavy atom, donor atom, acceptor molecule, acceptor atom, score
      L1  H     9    32       P1  1223  1.00

> <Gold.PLP.Chemscore.Internal.Correction>
0.3767

