#       Name:                EN300-193626_i001
#       Creating user name   fsindt
#       Creation time:       Wed Mar  1 05:10:17 2023


#       File generated by GOLD software.
#

@<TRIPOS>MOLECULE
EN300-193626_i001|amine_4|mol2|10283|dock14
    34    34     1
SMALL
USER_CHARGES


@<TRIPOS>ATOM
      1 C1          -1.8841  -9.7676   9.5596 C.3            1 <1>                0.0000
      2 C2          -1.8601 -11.1817  10.1433 C.3            1 <1>                0.0000
      3 C3          -1.6015 -11.1073  11.6494 C.3            1 <1>                0.0000
      4 C4          -3.2074 -11.8609   9.8899 C.3            1 <1>                0.0000
      5 O5          -0.8207 -11.9373   9.5182 O.3            1 <1>                0.0000
      6 C6          -0.8022 -13.3174   9.8884 C.3            1 <1>                0.0000
      7 C7           0.0376 -13.6073  11.1436 C.3            1 <1>                0.0000
      8 C8           0.5275 -14.8765  10.4267 C.3            1 <1>                0.0000
      9 N9           1.9554 -15.1541  10.6318 N.4            1 <1>                1.0000
     10 C10          0.2245 -14.1518   9.1046 C.3            1 <1>                0.0000
     11 C11         -0.4033 -15.0546   8.0408 C.3            1 <1>                0.0000
     12 C12          1.4013 -13.3323   8.5712 C.3            1 <1>                0.0000
     13 H13         -0.9242  -9.2837   9.7401 H              1 <1>                0.0000
     14 H14         -2.0683  -9.8205   8.4865 H              1 <1>                0.0000
     15 H15         -2.6770  -9.1912  10.0364 H              1 <1>                0.0000
     16 H16         -2.3943 -10.5309  12.1261 H              1 <1>                0.0000
     17 H17         -1.5844 -12.1148  12.0653 H              1 <1>                0.0000
     18 H18         -0.6416 -10.6235  11.8299 H              1 <1>                0.0000
     19 H19         -3.3916 -11.9139   8.8170 H              1 <1>                0.0000
     20 H20         -3.1903 -12.8684  10.3058 H              1 <1>                0.0000
     21 H21         -4.0003 -11.2845  10.3667 H              1 <1>                0.0000
     22 H22         -1.7974 -13.7614   9.9168 H              1 <1>                0.0000
     23 H23          0.8248 -12.8746  11.3210 H              1 <1>                0.0000
     24 H24         -0.5606 -13.8109  12.0318 H              1 <1>                0.0000
     25 H25         -0.1026 -15.7483  10.6027 H              1 <1>                0.0000
     26 H26         -1.1326 -15.7154   8.5093 H              1 <1>                0.0000
     27 H27         -0.8996 -14.4401   7.2897 H              1 <1>                0.0000
     28 H28          0.3751 -15.6515   7.5654 H              1 <1>                0.0000
     29 H29          2.1106 -13.9951   8.0756 H              1 <1>                0.0000
     30 H30          1.0358 -12.5930   7.8586 H              1 <1>                0.0000
     31 H31          1.8958 -12.8250   9.3996 H              1 <1>                0.0000
     32 H32          2.1862 -16.0479  10.2244 H              1 <1>                0.0000
     33 H33          2.5051 -14.4317  10.1913 H              1 <1>                0.0000
     34 H34          2.1557 -15.1734  11.6205 H              1 <1>                0.0000
@<TRIPOS>BOND
    1    1    2 1     
    2    1   13 1     
    3    1   14 1     
    4    1   15 1     
    5    2    3 1     
    6    2    4 1     
    7    2    5 1     
    8    3   16 1     
    9    3   17 1     
   10    3   18 1     
   11    4   19 1     
   12    4   20 1     
   13    4   21 1     
   14    5    6 1     
   15    6    7 1     
   16    6   10 1     
   17    6   22 1     
   18    7    8 1     
   19    7   23 1     
   20    7   24 1     
   21    8    9 1     
   22    8   10 1     
   23    8   25 1     
   24    9   32 1     
   25    9   33 1     
   26    9   34 1     
   27   10   11 1     
   28   10   12 1     
   29   11   26 1     
   30   11   27 1     
   31   11   28 1     
   32   12   29 1     
   33   12   30 1     
   34   12   31 1     
@<TRIPOS>SUBSTRUCTURE
      1 ****           1
@<TRIPOS>SET
DONOR_HYDROGENS      STATIC     ATOMS    <user>   **** ""
3 32 33 34
ATOM$RED        STATIC     ATOMS    COLORGROUP SYSTEM
3 32 33 34
@<TRIPOS>COMMENT
> <Gold.Version>
2022.2.0

> <Gold.Id.Protein>
3pbl|protein|mol2

> <Gold.Protein.RotatedTorsions>
[ 1303 1298 1297 1294 ] final   46.93 input  179.99 | X-H torsion
[ 2461 2456 2455 2452 ] final  -15.76 input   30.03 | X-H torsion
[ 2515 2510 2509 2506 ] final   84.41 input  -89.99 | X-H torsion
[ 3721 3712 3711 3710 ] final -130.75 input -179.91 | X-H torsion
[ 3841 3832 3831 3830 ] final   16.83 input -179.91 | X-H torsion
[ 3767 3762 3761 3758 ] final  130.64 input  -89.99 | X-H torsion
[ 2472 2467 2466 2463 ] final -119.64 input  -89.97 | X-H torsion

> <Gold.Protein.ActiveResidues>
 VAL82   VAL86   LEU89   PHE106  VAL107  ASP110  VAL111  MET112  CYS114  THR115 
 CYS181  SER182  ILE183  PHE188  VAL189  ILE190  SER192  SER193  SER196  TRP342 
 PHE345  PHE346  HIS349  VAL350  TYR365  THR369  GLY372  TYR373 

> <Gold.Protein.RotatedAtoms>
    3.8339  -10.2599    4.5088 H   0  0  0  0  0  0  0  0  0  0  0  0  # atno 1303 bound_to 1298
    0.8064   -8.0941    7.0546 H   0  0  0  0  0  0  0  0  0  0  0  0  # atno 2461 bound_to 2456
   -4.4955   -5.4428    9.4329 H   0  0  0  0  0  0  0  0  0  0  0  0  # atno 2472 bound_to 2467
    2.0561   -7.6682    5.7771 H   0  0  0  0  0  0  0  0  0  0  0  0  # atno 2515 bound_to 2510
   -3.2682  -16.5895   14.2663 H   0  0  0  0  0  0  0  0  0  0  0  0  # atno 3721 bound_to 3712
   -3.9172  -23.0995   11.0492 H   0  0  0  0  0  0  0  0  0  0  0  0  # atno 3767 bound_to 3762
    1.9063  -20.6666    9.6145 H   0  0  0  0  0  0  0  0  0  0  0  0  # atno 3841 bound_to 3832
    3.6255   -8.8044    3.7986 LP  0  0  0  0  0  0  0  0  0  0  0  0  # atno 4297 bound_to 1298
    4.9029   -9.0567    4.7841 LP  0  0  0  0  0  0  0  0  0  0  0  0  # atno 4298 bound_to 1298
    0.7703   -9.2556    8.2022 LP  0  0  0  0  0  0  0  0  0  0  0  0  # atno 4299 bound_to 2456
    2.1610   -8.4583    7.8911 LP  0  0  0  0  0  0  0  0  0  0  0  0  # atno 4300 bound_to 2456
    2.7468   -8.1092    4.3649 LP  0  0  0  0  0  0  0  0  0  0  0  0  # atno 4301 bound_to 2510
    2.4940   -9.2220    5.5330 LP  0  0  0  0  0  0  0  0  0  0  0  0  # atno 4302 bound_to 2510
   -3.1012  -17.5100   12.9614 LP  0  0  0  0  0  0  0  0  0  0  0  0  # atno 4306 bound_to 3712
   -2.6533  -18.0635   14.4310 LP  0  0  0  0  0  0  0  0  0  0  0  0  # atno 4307 bound_to 3712
    1.8999  -19.6360    8.3841 LP  0  0  0  0  0  0  0  0  0  0  0  0  # atno 4314 bound_to 3832
    3.1274  -20.6963    8.5733 LP  0  0  0  0  0  0  0  0  0  0  0  0  # atno 4315 bound_to 3832
   -5.2175  -22.8457   10.0944 LP  0  0  0  0  0  0  0  0  0  0  0  0  # atno 4318 bound_to 3762
   -4.9923  -21.9300   11.4276 LP  0  0  0  0  0  0  0  0  0  0  0  0  # atno 4319 bound_to 3762
   -5.4201   -5.0769    8.1377 LP  0  0  0  0  0  0  0  0  0  0  0  0  # atno 4320 bound_to 2467
   -3.8013   -4.8739    8.0687 LP  0  0  0  0  0  0  0  0  0  0  0  0  # atno 4321 bound_to 2467

> <Gold.Score>
     Score     S(PLP)   S(hbond)     S(cho)   S(metal)  DE(clash)   DE(tors)     intcor
     40.46     -34.52       2.00       0.00       0.00       0.00       0.21       0.37

> <Gold.PLP.Fitness>
40.4644

> <Gold.PLP.PLP>
-34.5181

> <Gold.PLP.part.hbond>
-1.0000

> <Gold.PLP.part.metal>
0.0000

> <Gold.PLP.part.buried>
-4.1188

> <Gold.PLP.part.nonpolar>
-29.7453

> <Gold.PLP.part.repulsive>
0.0350

> <Gold.PLP.ligand.clash>
0.0000

> <Gold.PLP.ligand.torsion>
0.2121

> <Gold.PLP.Chemscore.Hbond>
2.0000

> <Gold.PLP.Chemscore.CHOScore>
0.0000

> <Gold.PLP.Chemscore.Metal>
0.0000

> <Gold.Chemscore.Hbonds>
donor molecule, donor type, donor heavy atom, donor atom, acceptor molecule, acceptor atom, score
      L1  H     9    32       P1  1227  2.00

> <Gold.PLP.Chemscore.Internal.Correction>
0.3705

