#       Name:                EN300-193626_i001
#       Creating user name   fsindt
#       Creation time:       Wed Mar  1 05:10:13 2023


#       File generated by GOLD software.
#

@<TRIPOS>MOLECULE
EN300-193626_i001|amine_4|mol2|10283|dock9
    34    34     1
SMALL
USER_CHARGES


@<TRIPOS>ATOM
      1 C1          -1.5555 -11.6135  11.6816 C.3            1 <1>                0.0000
      2 C2          -0.7122 -10.8265  10.6766 C.3            1 <1>                0.0000
      3 C3          -1.6018 -10.3511   9.5261 C.3            1 <1>                0.0000
      4 C4          -0.0879  -9.6154  11.3726 C.3            1 <1>                0.0000
      5 O5           0.3231 -11.6665  10.1624 O.3            1 <1>                0.0000
      6 C6          -0.1290 -12.9553   9.7421 C.3            1 <1>                0.0000
      7 C7           0.8310 -14.0970  10.1161 C.3            1 <1>                0.0000
      8 C8           0.5267 -14.6999   8.7345 C.3            1 <1>                0.0000
      9 N9           1.7049 -15.2732   8.0702 N.4            1 <1>                1.0000
     10 C10          0.1928 -13.2718   8.2721 C.3            1 <1>                0.0000
     11 C11         -1.0244 -13.1957   7.3482 C.3            1 <1>                0.0000
     12 C12          1.4006 -12.5049   7.7301 C.3            1 <1>                0.0000
     13 H13         -2.0004 -12.4764  11.1858 H              1 <1>                0.0000
     14 H14         -0.9218 -11.9522  12.5013 H              1 <1>                0.0000
     15 H15         -2.3454 -10.9728  12.0738 H              1 <1>                0.0000
     16 H16         -2.3915  -9.7104   9.9183 H              1 <1>                0.0000
     17 H17         -1.0009  -9.7902   8.8101 H              1 <1>                0.0000
     18 H18         -2.0465 -11.2139   9.0302 H              1 <1>                0.0000
     19 H19          0.5458  -9.9540  12.1922 H              1 <1>                0.0000
     20 H20          0.5129  -9.0546  10.6565 H              1 <1>                0.0000
     21 H21         -0.8776  -8.9746  11.7648 H              1 <1>                0.0000
     22 H22         -1.1662 -13.1498  10.0152 H              1 <1>                0.0000
     23 H23          1.8659 -13.7762  10.2342 H              1 <1>                0.0000
     24 H24          0.4790 -14.7090  10.9466 H              1 <1>                0.0000
     25 H25         -0.3305 -15.3731   8.7310 H              1 <1>                0.0000
     26 H26         -1.7976 -13.8739   7.7092 H              1 <1>                0.0000
     27 H27         -1.4106 -12.1764   7.3392 H              1 <1>                0.0000
     28 H28         -0.7323 -13.4825   6.3379 H              1 <1>                0.0000
     29 H29          1.6000 -12.8181   6.7054 H              1 <1>                0.0000
     30 H30          1.1902 -11.4355   7.7488 H              1 <1>                0.0000
     31 H31          2.2722 -12.7146   8.3502 H              1 <1>                0.0000
     32 H32          1.5086 -15.4012   7.0889 H              1 <1>                0.0000
     33 H33          2.4892 -14.6475   8.1776 H              1 <1>                0.0000
     34 H34          1.9260 -16.1646   8.4881 H              1 <1>                0.0000
@<TRIPOS>BOND
    1    1    2 1     
    2    1   13 1     
    3    1   14 1     
    4    1   15 1     
    5    2    3 1     
    6    2    4 1     
    7    2    5 1     
    8    3   16 1     
    9    3   17 1     
   10    3   18 1     
   11    4   19 1     
   12    4   20 1     
   13    4   21 1     
   14    5    6 1     
   15    6    7 1     
   16    6   10 1     
   17    6   22 1     
   18    7    8 1     
   19    7   23 1     
   20    7   24 1     
   21    8    9 1     
   22    8   10 1     
   23    8   25 1     
   24    9   32 1     
   25    9   33 1     
   26    9   34 1     
   27   10   11 1     
   28   10   12 1     
   29   11   26 1     
   30   11   27 1     
   31   11   28 1     
   32   12   29 1     
   33   12   30 1     
   34   12   31 1     
@<TRIPOS>SUBSTRUCTURE
      1 ****           1
@<TRIPOS>SET
DONOR_HYDROGENS      STATIC     ATOMS    <user>   **** ""
3 32 33 34
ATOM$RED        STATIC     ATOMS    COLORGROUP SYSTEM
3 32 33 34
@<TRIPOS>COMMENT
> <Gold.Version>
2022.2.0

> <Gold.Id.Protein>
3pbl|protein|mol2

> <Gold.Protein.RotatedTorsions>
[ 1303 1298 1297 1294 ] final  114.78 input  179.99 | X-H torsion
[ 2461 2456 2455 2452 ] final  108.48 input   30.03 | X-H torsion
[ 2515 2510 2509 2506 ] final  120.45 input  -89.99 | X-H torsion
[ 3721 3712 3711 3710 ] final  -86.48 input -179.91 | X-H torsion
[ 3841 3832 3831 3830 ] final  111.06 input -179.91 | X-H torsion
[ 3767 3762 3761 3758 ] final   34.61 input  -89.99 | X-H torsion
[ 2472 2467 2466 2463 ] final   85.90 input  -89.97 | X-H torsion

> <Gold.Protein.ActiveResidues>
 VAL82   VAL86   LEU89   PHE106  VAL107  ASP110  VAL111  MET112  CYS114  THR115 
 CYS181  SER182  ILE183  PHE188  VAL189  ILE190  SER192  SER193  SER196  TRP342 
 PHE345  PHE346  HIS349  VAL350  TYR365  THR369  GLY372  TYR373 

> <Gold.Protein.RotatedAtoms>
    4.6954   -9.8427    4.9456 H   0  0  0  0  0  0  0  0  0  0  0  0  # atno 1303 bound_to 1298
    2.1572   -8.5081    7.9397 H   0  0  0  0  0  0  0  0  0  0  0  0  # atno 2461 bound_to 2456
   -5.0444   -4.9014    7.7633 H   0  0  0  0  0  0  0  0  0  0  0  0  # atno 2472 bound_to 2467
    2.0423   -8.1733    6.0681 H   0  0  0  0  0  0  0  0  0  0  0  0  # atno 2515 bound_to 2510
   -2.9990  -16.9912   14.7049 H   0  0  0  0  0  0  0  0  0  0  0  0  # atno 3721 bound_to 3712
   -4.9214  -23.1007   10.0710 H   0  0  0  0  0  0  0  0  0  0  0  0  # atno 3767 bound_to 3762
    3.0287  -20.7995    9.0386 H   0  0  0  0  0  0  0  0  0  0  0  0  # atno 3841 bound_to 3832
    3.3625   -9.8027    4.0032 LP  0  0  0  0  0  0  0  0  0  0  0  0  # atno 4297 bound_to 1298
    4.3041   -8.4758    4.1426 LP  0  0  0  0  0  0  0  0  0  0  0  0  # atno 4298 bound_to 1298
    0.8670   -8.0617    7.0433 LP  0  0  0  0  0  0  0  0  0  0  0  0  # atno 4299 bound_to 2456
    0.7138   -9.2383    8.1652 LP  0  0  0  0  0  0  0  0  0  0  0  0  # atno 4300 bound_to 2456
    2.5378   -7.6242    4.6125 LP  0  0  0  0  0  0  0  0  0  0  0  0  # atno 4301 bound_to 2510
    2.7168   -9.2018    4.9943 LP  0  0  0  0  0  0  0  0  0  0  0  0  # atno 4302 bound_to 2510
   -3.4324  -16.9009   13.1616 LP  0  0  0  0  0  0  0  0  0  0  0  0  # atno 4306 bound_to 3712
   -2.6329  -18.2088   13.7245 LP  0  0  0  0  0  0  0  0  0  0  0  0  # atno 4307 bound_to 3712
    1.4958  -20.5030    9.4105 LP  0  0  0  0  0  0  0  0  0  0  0  0  # atno 4314 bound_to 3832
    2.2349  -19.6757    8.2122 LP  0  0  0  0  0  0  0  0  0  0  0  0  # atno 4315 bound_to 3832
   -5.2729  -21.9303   11.1543 LP  0  0  0  0  0  0  0  0  0  0  0  0  # atno 4318 bound_to 3762
   -3.9332  -22.8443   11.3456 LP  0  0  0  0  0  0  0  0  0  0  0  0  # atno 4319 bound_to 3762
   -3.6346   -5.0384    8.5758 LP  0  0  0  0  0  0  0  0  0  0  0  0  # atno 4320 bound_to 2467
   -5.0381   -5.4537    9.2999 LP  0  0  0  0  0  0  0  0  0  0  0  0  # atno 4321 bound_to 2467

> <Gold.Score>
     Score     S(PLP)   S(hbond)     S(cho)   S(metal)  DE(clash)   DE(tors)     intcor
     41.08     -36.25       2.00       0.00       0.00       0.00       0.77       0.37

> <Gold.PLP.Fitness>
41.0773

> <Gold.PLP.PLP>
-36.2485

> <Gold.PLP.part.hbond>
-1.6343

> <Gold.PLP.part.metal>
0.0000

> <Gold.PLP.part.buried>
-2.7722

> <Gold.PLP.part.nonpolar>
-31.5510

> <Gold.PLP.part.repulsive>
0.0634

> <Gold.PLP.ligand.clash>
0.0000

> <Gold.PLP.ligand.torsion>
0.7718

> <Gold.PLP.Chemscore.Hbond>
2.0000

> <Gold.PLP.Chemscore.CHOScore>
0.0000

> <Gold.PLP.Chemscore.Metal>
0.0000

> <Gold.Chemscore.Hbonds>
donor molecule, donor type, donor heavy atom, donor atom, acceptor molecule, acceptor atom, score
      L1  H     9    34       P1  1227  2.00

> <Gold.PLP.Chemscore.Internal.Correction>
0.3723

