#       Name:                EN300-193626_i001
#       Creating user name   fsindt
#       Creation time:       Wed Mar  1 05:10:20 2023


#       File generated by GOLD software.
#

@<TRIPOS>MOLECULE
EN300-193626_i001|amine_4|mol2|10283|dock18
    34    34     1
SMALL
USER_CHARGES


@<TRIPOS>ATOM
      1 C1          -2.6254 -11.6693  10.3142 C.3            1 <1>                0.0000
      2 C2          -1.1407 -11.3292  10.1693 C.3            1 <1>                0.0000
      3 C3          -0.7275 -11.4640   8.7024 C.3            1 <1>                0.0000
      4 C4          -0.8985  -9.8929  10.6375 C.3            1 <1>                0.0000
      5 O5          -0.3664 -12.2271  10.9668 O.3            1 <1>                0.0000
      6 C6          -0.7168 -13.6024  10.8002 C.3            1 <1>                0.0000
      7 C7          -0.3690 -14.4783  12.0153 C.3            1 <1>                0.0000
      8 C8           0.0734 -15.5567  11.0122 C.3            1 <1>                0.0000
      9 N9           1.2936 -16.2693  11.4143 N.4            1 <1>                1.0000
     10 C10          0.3277 -14.4136  10.0156 C.3            1 <1>                0.0000
     11 C11         -0.1006 -14.7421   8.5839 C.3            1 <1>                0.0000
     12 C12          1.7411 -13.8334  10.0960 C.3            1 <1>                0.0000
     13 H13         -2.7980 -12.6926   9.9806 H              1 <1>                0.0000
     14 H14         -2.9198 -11.5732  11.3593 H              1 <1>                0.0000
     15 H15         -3.2161 -10.9844   9.7058 H              1 <1>                0.0000
     16 H16         -1.3182 -10.7792   8.0940 H              1 <1>                0.0000
     17 H17          0.3303 -11.2217   8.5991 H              1 <1>                0.0000
     18 H18         -0.9000 -12.4873   8.3688 H              1 <1>                0.0000
     19 H19         -1.1930  -9.7968  11.6825 H              1 <1>                0.0000
     20 H20          0.1592  -9.6505  10.5342 H              1 <1>                0.0000
     21 H21         -1.4893  -9.2079  10.0291 H              1 <1>                0.0000
     22 H22         -1.7371 -13.7387  10.4414 H              1 <1>                0.0000
     23 H23          0.4475 -14.0826  12.6194 H              1 <1>                0.0000
     24 H24         -1.2365 -14.7646  12.6099 H              1 <1>                0.0000
     25 H25         -0.7298 -16.2293  10.7116 H              1 <1>                0.0000
     26 H26         -1.0469 -15.2827   8.6027 H              1 <1>                0.0000
     27 H27         -0.2215 -13.8175   8.0196 H              1 <1>                0.0000
     28 H28          0.6616 -15.3604   8.1095 H              1 <1>                0.0000
     29 H29          2.4328 -14.4863   9.5638 H              1 <1>                0.0000
     30 H30          1.7536 -12.8428   9.6413 H              1 <1>                0.0000
     31 H31          2.0438 -13.7575  11.1404 H              1 <1>                0.0000
     32 H32          1.6614 -16.7783  10.6247 H              1 <1>                0.0000
     33 H33          1.9810 -15.6042  11.7355 H              1 <1>                0.0000
     34 H34          1.0763 -16.9146  12.1589 H              1 <1>                0.0000
@<TRIPOS>BOND
    1    1    2 1     
    2    1   13 1     
    3    1   14 1     
    4    1   15 1     
    5    2    3 1     
    6    2    4 1     
    7    2    5 1     
    8    3   16 1     
    9    3   17 1     
   10    3   18 1     
   11    4   19 1     
   12    4   20 1     
   13    4   21 1     
   14    5    6 1     
   15    6    7 1     
   16    6   10 1     
   17    6   22 1     
   18    7    8 1     
   19    7   23 1     
   20    7   24 1     
   21    8    9 1     
   22    8   10 1     
   23    8   25 1     
   24    9   32 1     
   25    9   33 1     
   26    9   34 1     
   27   10   11 1     
   28   10   12 1     
   29   11   26 1     
   30   11   27 1     
   31   11   28 1     
   32   12   29 1     
   33   12   30 1     
   34   12   31 1     
@<TRIPOS>SUBSTRUCTURE
      1 ****           1
@<TRIPOS>SET
DONOR_HYDROGENS      STATIC     ATOMS    <user>   **** ""
3 32 33 34
ATOM$RED        STATIC     ATOMS    COLORGROUP SYSTEM
3 32 33 34
@<TRIPOS>COMMENT
> <Gold.Version>
2022.2.0

> <Gold.Id.Protein>
3pbl|protein|mol2

> <Gold.Protein.RotatedTorsions>
[ 1303 1298 1297 1294 ] final  -25.71 input  179.99 | X-H torsion
[ 2461 2456 2455 2452 ] final -119.08 input   30.03 | X-H torsion
[ 2515 2510 2509 2506 ] final  -19.20 input  -89.99 | X-H torsion
[ 3721 3712 3711 3710 ] final -163.01 input -179.91 | X-H torsion
[ 3841 3832 3831 3830 ] final -145.73 input -179.91 | X-H torsion
[ 3767 3762 3761 3758 ] final -163.00 input  -89.99 | X-H torsion
[ 2472 2467 2466 2463 ] final   69.29 input  -89.97 | X-H torsion

> <Gold.Protein.ActiveResidues>
 VAL82   VAL86   LEU89   PHE106  VAL107  ASP110  VAL111  MET112  CYS114  THR115 
 CYS181  SER182  ILE183  PHE188  VAL189  ILE190  SER192  SER193  SER196  TRP342 
 PHE345  PHE346  HIS349  VAL350  TYR365  THR369  GLY372  TYR373 

> <Gold.Protein.RotatedAtoms>
    3.3313   -9.4992    3.8643 H   0  0  0  0  0  0  0  0  0  0  0  0  # atno 1303 bound_to 1298
    0.5657   -9.1680    8.0433 H   0  0  0  0  0  0  0  0  0  0  0  0  # atno 2461 bound_to 2456
   -4.7931   -4.8425    7.6764 H   0  0  0  0  0  0  0  0  0  0  0  0  # atno 2472 bound_to 2467
    2.6627   -7.8652    4.4401 H   0  0  0  0  0  0  0  0  0  0  0  0  # atno 2515 bound_to 2510
   -3.3388  -16.5397   13.7929 H   0  0  0  0  0  0  0  0  0  0  0  0  # atno 3721 bound_to 3712
   -4.2723  -22.3306   11.6392 H   0  0  0  0  0  0  0  0  0  0  0  0  # atno 3767 bound_to 3762
    2.5730  -19.7201    8.3543 H   0  0  0  0  0  0  0  0  0  0  0  0  # atno 3841 bound_to 3832
    4.5620   -8.5407    4.3470 LP  0  0  0  0  0  0  0  0  0  0  0  0  # atno 4297 bound_to 1298
    4.4693  -10.0813    4.8804 LP  0  0  0  0  0  0  0  0  0  0  0  0  # atno 4298 bound_to 1298
    2.1165   -8.6568    8.0739 LP  0  0  0  0  0  0  0  0  0  0  0  0  # atno 4299 bound_to 2456
    1.0554   -7.9836    7.0310 LP  0  0  0  0  0  0  0  0  0  0  0  0  # atno 4300 bound_to 2456
    2.6040   -9.2578    5.2904 LP  0  0  0  0  0  0  0  0  0  0  0  0  # atno 4301 bound_to 2510
    2.0299   -7.8763    5.9451 LP  0  0  0  0  0  0  0  0  0  0  0  0  # atno 4302 bound_to 2510
   -2.8428  -17.9299   13.1611 LP  0  0  0  0  0  0  0  0  0  0  0  0  # atno 4306 bound_to 3712
   -2.8301  -17.7011   14.7779 LP  0  0  0  0  0  0  0  0  0  0  0  0  # atno 4307 bound_to 3712
    2.8387  -21.1060    9.1189 LP  0  0  0  0  0  0  0  0  0  0  0  0  # atno 4314 bound_to 3832
    1.4184  -20.3196    9.2943 LP  0  0  0  0  0  0  0  0  0  0  0  0  # atno 4315 bound_to 3832
   -4.3446  -23.3324   10.3515 LP  0  0  0  0  0  0  0  0  0  0  0  0  # atno 4318 bound_to 3762
   -5.5103  -22.2119   10.5807 LP  0  0  0  0  0  0  0  0  0  0  0  0  # atno 4319 bound_to 3762
   -3.6726   -5.1334    8.8280 LP  0  0  0  0  0  0  0  0  0  0  0  0  # atno 4320 bound_to 2467
   -5.2512   -5.4176    9.1345 LP  0  0  0  0  0  0  0  0  0  0  0  0  # atno 4321 bound_to 2467

> <Gold.Score>
     Score     S(PLP)   S(hbond)     S(cho)   S(metal)  DE(clash)   DE(tors)     intcor
     37.19     -31.99       2.00       0.00       0.00       0.00       0.58       0.37

> <Gold.PLP.Fitness>
37.1936

> <Gold.PLP.PLP>
-31.9911

> <Gold.PLP.part.hbond>
-1.0000

> <Gold.PLP.part.metal>
0.0000

> <Gold.PLP.part.buried>
-2.4804

> <Gold.PLP.part.nonpolar>
-28.7056

> <Gold.PLP.part.repulsive>
0.0000

> <Gold.PLP.ligand.clash>
0.0000

> <Gold.PLP.ligand.torsion>
0.5840

> <Gold.PLP.Chemscore.Hbond>
2.0000

> <Gold.PLP.Chemscore.CHOScore>
0.0000

> <Gold.PLP.Chemscore.Metal>
0.0000

> <Gold.Chemscore.Hbonds>
donor molecule, donor type, donor heavy atom, donor atom, acceptor molecule, acceptor atom, score
      L1  H     9    32       P1  1227  2.00

> <Gold.PLP.Chemscore.Internal.Correction>
0.3705

