#       Name:                EN300-193626_i001
#       Creating user name   fsindt
#       Creation time:       Wed Mar  1 05:10:11 2023


#       File generated by GOLD software.
#

@<TRIPOS>MOLECULE
EN300-193626_i001|amine_4|mol2|10283|dock5
    34    34     1
SMALL
USER_CHARGES


@<TRIPOS>ATOM
      1 C1          -1.0417 -10.6348   8.8320 C.3            1 <1>                0.0000
      2 C2          -1.3643 -11.3253  10.1587 C.3            1 <1>                0.0000
      3 C3          -0.6656 -10.5859  11.3015 C.3            1 <1>                0.0000
      4 C4          -2.8768 -11.3068  10.3886 C.3            1 <1>                0.0000
      5 O5          -0.9055 -12.6779  10.1156 O.3            1 <1>                0.0000
      6 C6           0.4451 -12.8197   9.6711 C.3            1 <1>                0.0000
      7 C7           0.5708 -13.1186   8.1678 C.3            1 <1>                0.0000
      8 C8           1.6964 -14.0992   8.5370 C.3            1 <1>                0.0000
      9 N9           1.6692 -15.3457   7.7601 N.4            1 <1>                1.0000
     10 C10          1.0313 -14.2197   9.9183 C.3            1 <1>                0.0000
     11 C11          2.0295 -14.2704  11.0768 C.3            1 <1>                0.0000
     12 C12         -0.0266 -15.3223   9.9952 C.3            1 <1>                0.0000
     13 H13          0.0359 -10.6480   8.6682 H              1 <1>                0.0000
     14 H14         -1.5394 -11.1616   8.0178 H              1 <1>                0.0000
     15 H15         -1.3916  -9.6030   8.8649 H              1 <1>                0.0000
     16 H16         -1.0156  -9.5541  11.3343 H              1 <1>                0.0000
     17 H17         -0.8956 -11.0778  12.2467 H              1 <1>                0.0000
     18 H18          0.4119 -10.5991  11.1378 H              1 <1>                0.0000
     19 H19         -3.3746 -11.8335   9.5744 H              1 <1>                0.0000
     20 H20         -3.1067 -11.7987  11.3338 H              1 <1>                0.0000
     21 H21         -3.2268 -10.2750  10.4214 H              1 <1>                0.0000
     22 H22          1.0898 -12.0088  10.0104 H              1 <1>                0.0000
     23 H23         -0.3088 -13.6030   7.7440 H              1 <1>                0.0000
     24 H24          0.9102 -12.2657   7.5800 H              1 <1>                0.0000
     25 H25          2.6843 -13.6395   8.5652 H              1 <1>                0.0000
     26 H26          2.8368 -13.5616  10.8921 H              1 <1>                0.0000
     27 H27          1.5220 -14.0092  12.0054 H              1 <1>                0.0000
     28 H28          2.4409 -15.2765  11.1581 H              1 <1>                0.0000
     29 H29          0.4635 -16.2881  10.1179 H              1 <1>                0.0000
     30 H30         -0.6831 -15.1373  10.8453 H              1 <1>                0.0000
     31 H31         -0.6139 -15.3270   9.0768 H              1 <1>                0.0000
     32 H32          0.8243 -15.3806   7.2098 H              1 <1>                0.0000
     33 H33          2.4708 -15.3780   7.1481 H              1 <1>                0.0000
     34 H34          1.6940 -16.1344   8.3888 H              1 <1>                0.0000
@<TRIPOS>BOND
    1    1    2 1     
    2    1   13 1     
    3    1   14 1     
    4    1   15 1     
    5    2    3 1     
    6    2    4 1     
    7    2    5 1     
    8    3   16 1     
    9    3   17 1     
   10    3   18 1     
   11    4   19 1     
   12    4   20 1     
   13    4   21 1     
   14    5    6 1     
   15    6    7 1     
   16    6   10 1     
   17    6   22 1     
   18    7    8 1     
   19    7   23 1     
   20    7   24 1     
   21    8    9 1     
   22    8   10 1     
   23    8   25 1     
   24    9   32 1     
   25    9   33 1     
   26    9   34 1     
   27   10   11 1     
   28   10   12 1     
   29   11   26 1     
   30   11   27 1     
   31   11   28 1     
   32   12   29 1     
   33   12   30 1     
   34   12   31 1     
@<TRIPOS>SUBSTRUCTURE
      1 ****           1
@<TRIPOS>SET
DONOR_HYDROGENS      STATIC     ATOMS    <user>   **** ""
3 32 33 34
ATOM$RED        STATIC     ATOMS    COLORGROUP SYSTEM
3 32 33 34
@<TRIPOS>COMMENT
> <Gold.Version>
2022.2.0

> <Gold.Id.Protein>
3pbl|protein|mol2

> <Gold.Protein.RotatedTorsions>
[ 1303 1298 1297 1294 ] final  148.71 input  179.99 | X-H torsion
[ 2461 2456 2455 2452 ] final  -11.35 input   30.03 | X-H torsion
[ 2515 2510 2509 2506 ] final  179.66 input  -89.99 | X-H torsion
[ 3721 3712 3711 3710 ] final  -48.33 input -179.91 | X-H torsion
[ 3841 3832 3831 3830 ] final -153.63 input -179.91 | X-H torsion
[ 3767 3762 3761 3758 ] final   97.40 input  -89.99 | X-H torsion
[ 2472 2467 2466 2463 ] final  105.09 input  -89.97 | X-H torsion

> <Gold.Protein.ActiveResidues>
 VAL82   VAL86   LEU89   PHE106  VAL107  ASP110  VAL111  MET112  CYS114  THR115 
 CYS181  SER182  ILE183  PHE188  VAL189  ILE190  SER192  SER193  SER196  TRP342 
 PHE345  PHE346  HIS349  VAL350  TYR365  THR369  GLY372  TYR373 

> <Gold.Protein.RotatedAtoms>
    4.9009   -9.3353    4.8915 H   0  0  0  0  0  0  0  0  0  0  0  0  # atno 1303 bound_to 1298
    0.8694   -8.0603    7.0427 H   0  0  0  0  0  0  0  0  0  0  0  0  # atno 2461 bound_to 2456
   -5.2846   -4.9931    7.9443 H   0  0  0  0  0  0  0  0  0  0  0  0  # atno 2472 bound_to 2467
    2.3214   -9.0334    5.8460 H   0  0  0  0  0  0  0  0  0  0  0  0  # atno 2515 bound_to 2510
   -2.7168  -17.4818   14.7162 H   0  0  0  0  0  0  0  0  0  0  0  0  # atno 3721 bound_to 3712
   -4.1180  -23.3117   10.5957 H   0  0  0  0  0  0  0  0  0  0  0  0  # atno 3767 bound_to 3762
    2.6743  -19.7826    8.3475 H   0  0  0  0  0  0  0  0  0  0  0  0  # atno 3841 bound_to 3832
    3.6178  -10.1702    4.3232 LP  0  0  0  0  0  0  0  0  0  0  0  0  # atno 4297 bound_to 1298
    3.8432   -8.6158    3.8767 LP  0  0  0  0  0  0  0  0  0  0  0  0  # atno 4298 bound_to 1298
    0.7116   -9.2375    8.1637 LP  0  0  0  0  0  0  0  0  0  0  0  0  # atno 4299 bound_to 2456
    2.1567   -8.5102    7.9415 LP  0  0  0  0  0  0  0  0  0  0  0  0  # atno 4300 bound_to 2456
    2.1515   -7.4600    5.4441 LP  0  0  0  0  0  0  0  0  0  0  0  0  # atno 4301 bound_to 2510
    2.8238   -8.5054    4.3849 LP  0  0  0  0  0  0  0  0  0  0  0  0  # atno 4302 bound_to 2510
   -3.5650  -16.5879   13.6869 LP  0  0  0  0  0  0  0  0  0  0  0  0  # atno 4306 bound_to 3712
   -2.8261  -17.9553   13.1860 LP  0  0  0  0  0  0  0  0  0  0  0  0  # atno 4307 bound_to 3712
    2.7443  -21.1373    9.2054 LP  0  0  0  0  0  0  0  0  0  0  0  0  # atno 4314 bound_to 3832
    1.3959  -20.2162    9.2156 LP  0  0  0  0  0  0  0  0  0  0  0  0  # atno 4315 bound_to 3832
   -5.4745  -22.4394   10.3388 LP  0  0  0  0  0  0  0  0  0  0  0  0  # atno 4318 bound_to 3762
   -4.5347  -22.1242   11.6365 LP  0  0  0  0  0  0  0  0  0  0  0  0  # atno 4319 bound_to 3762
   -3.6880   -4.9385    8.2825 LP  0  0  0  0  0  0  0  0  0  0  0  0  # atno 4320 bound_to 2467
   -4.7445   -5.4619    9.4123 LP  0  0  0  0  0  0  0  0  0  0  0  0  # atno 4321 bound_to 2467

> <Gold.Score>
     Score     S(PLP)   S(hbond)     S(cho)   S(metal)  DE(clash)   DE(tors)     intcor
     42.07     -33.64       2.93       0.00       0.00       0.00       0.36       0.37

> <Gold.PLP.Fitness>
42.0709

> <Gold.PLP.PLP>
-33.6414

> <Gold.PLP.part.hbond>
-2.0000

> <Gold.PLP.part.metal>
0.0000

> <Gold.PLP.part.buried>
-3.3225

> <Gold.PLP.part.nonpolar>
-30.0313

> <Gold.PLP.part.repulsive>
0.0605

> <Gold.PLP.ligand.clash>
0.0000

> <Gold.PLP.ligand.torsion>
0.3608

> <Gold.PLP.Chemscore.Hbond>
2.9263

> <Gold.PLP.Chemscore.CHOScore>
0.0000

> <Gold.PLP.Chemscore.Metal>
0.0000

> <Gold.Chemscore.Hbonds>
donor molecule, donor type, donor heavy atom, donor atom, acceptor molecule, acceptor atom, score
      L1  H     9    33       P1  1223  0.93
      L1  H     9    34       P1  1227  2.00

> <Gold.PLP.Chemscore.Internal.Correction>
0.3723

