#       Name:                EN300-193626_i001
#       Creating user name   fsindt
#       Creation time:       Wed Mar  1 05:10:15 2023


#       File generated by GOLD software.
#

@<TRIPOS>MOLECULE
EN300-193626_i001|amine_4|mol2|10283|dock11
    34    34     1
SMALL
USER_CHARGES


@<TRIPOS>ATOM
      1 C1          -2.4166 -11.3229   9.6036 C.3            1 <1>                0.0000
      2 C2          -1.0439 -11.5826  10.2274 C.3            1 <1>                0.0000
      3 C3          -0.4623 -10.2661  10.7463 C.3            1 <1>                0.0000
      4 C4          -1.1896 -12.5686  11.3882 C.3            1 <1>                0.0000
      5 O5          -0.1692 -12.1339   9.2411 O.3            1 <1>                0.0000
      6 C6          -0.5003 -13.4682   8.8510 C.3            1 <1>                0.0000
      7 C7           0.3665 -14.5416   9.5303 C.3            1 <1>                0.0000
      8 C8           0.3849 -15.2711   8.1766 C.3            1 <1>                0.0000
      9 N9           1.6884 -15.8611   7.8437 N.4            1 <1>                1.0000
     10 C10          0.1444 -13.8999   7.5234 C.3            1 <1>                0.0000
     11 C11         -0.8376 -13.9434   6.3509 C.3            1 <1>                0.0000
     12 C12          1.4329 -13.1438   7.1933 C.3            1 <1>                0.0000
     13 H13         -2.3129 -10.6205   8.7765 H              1 <1>                0.0000
     14 H14         -2.8311 -12.2609   9.2339 H              1 <1>                0.0000
     15 H15         -3.0840 -10.9023  10.3559 H              1 <1>                0.0000
     16 H16         -1.1296  -9.8456  11.4986 H              1 <1>                0.0000
     17 H17          0.5157 -10.4512  11.1908 H              1 <1>                0.0000
     18 H18         -0.3585  -9.5637   9.9193 H              1 <1>                0.0000
     19 H19         -1.6040 -13.5065  11.0185 H              1 <1>                0.0000
     20 H20         -0.2117 -12.7536  11.8327 H              1 <1>                0.0000
     21 H21         -1.8569 -12.1481  12.1406 H              1 <1>                0.0000
     22 H22         -1.5698 -13.6720   8.9053 H              1 <1>                0.0000
     23 H23          1.3452 -14.1783   9.8438 H              1 <1>                0.0000
     24 H24         -0.1537 -15.0906  10.3151 H              1 <1>                0.0000
     25 H25         -0.4416 -15.9696   8.0458 H              1 <1>                0.0000
     26 H26         -1.6632 -14.6127   6.5929 H              1 <1>                0.0000
     27 H27         -1.2247 -12.9418   6.1637 H              1 <1>                0.0000
     28 H28         -0.3244 -14.3068   5.4604 H              1 <1>                0.0000
     29 H29          1.8592 -13.5378   6.2707 H              1 <1>                0.0000
     30 H30          1.2103 -12.0843   7.0673 H              1 <1>                0.0000
     31 H31          2.1472 -13.2708   8.0068 H              1 <1>                0.0000
     32 H32          2.0202 -16.4063   8.6252 H              1 <1>                0.0000
     33 H33          1.5913 -16.4567   7.0351 H              1 <1>                0.0000
     34 H34          2.3489 -15.1254   7.6423 H              1 <1>                0.0000
@<TRIPOS>BOND
    1    1    2 1     
    2    1   13 1     
    3    1   14 1     
    4    1   15 1     
    5    2    3 1     
    6    2    4 1     
    7    2    5 1     
    8    3   16 1     
    9    3   17 1     
   10    3   18 1     
   11    4   19 1     
   12    4   20 1     
   13    4   21 1     
   14    5    6 1     
   15    6    7 1     
   16    6   10 1     
   17    6   22 1     
   18    7    8 1     
   19    7   23 1     
   20    7   24 1     
   21    8    9 1     
   22    8   10 1     
   23    8   25 1     
   24    9   32 1     
   25    9   33 1     
   26    9   34 1     
   27   10   11 1     
   28   10   12 1     
   29   11   26 1     
   30   11   27 1     
   31   11   28 1     
   32   12   29 1     
   33   12   30 1     
   34   12   31 1     
@<TRIPOS>SUBSTRUCTURE
      1 ****           1
@<TRIPOS>SET
DONOR_HYDROGENS      STATIC     ATOMS    <user>   **** ""
3 32 33 34
ATOM$RED        STATIC     ATOMS    COLORGROUP SYSTEM
3 32 33 34
@<TRIPOS>COMMENT
> <Gold.Version>
2022.2.0

> <Gold.Id.Protein>
3pbl|protein|mol2

> <Gold.Protein.RotatedTorsions>
[ 1303 1298 1297 1294 ] final   89.59 input  179.99 | X-H torsion
[ 2461 2456 2455 2452 ] final  -75.79 input   30.03 | X-H torsion
[ 2515 2510 2509 2506 ] final -130.35 input  -89.99 | X-H torsion
[ 3721 3712 3711 3710 ] final   34.59 input -179.91 | X-H torsion
[ 3841 3832 3831 3830 ] final -139.78 input -179.91 | X-H torsion
[ 3767 3762 3761 3758 ] final  101.53 input  -89.99 | X-H torsion
[ 2472 2467 2466 2463 ] final  -77.50 input  -89.97 | X-H torsion

> <Gold.Protein.ActiveResidues>
 VAL82   VAL86   LEU89   PHE106  VAL107  ASP110  VAL111  MET112  CYS114  THR115 
 CYS181  SER182  ILE183  PHE188  VAL189  ILE190  SER192  SER193  SER196  TRP342 
 PHE345  PHE346  HIS349  VAL350  TYR365  THR369  GLY372  TYR373 

> <Gold.Protein.RotatedAtoms>
    4.4095  -10.1240    4.8561 H   0  0  0  0  0  0  0  0  0  0  0  0  # atno 1303 bound_to 1298
    0.3306   -8.7477    7.5413 H   0  0  0  0  0  0  0  0  0  0  0  0  # atno 2461 bound_to 2456
   -3.8883   -5.2837    9.1770 H   0  0  0  0  0  0  0  0  0  0  0  0  # atno 2472 bound_to 2467
    2.6582   -9.2454    5.1560 H   0  0  0  0  0  0  0  0  0  0  0  0  # atno 2515 bound_to 2510
   -2.4923  -18.0265   13.7321 H   0  0  0  0  0  0  0  0  0  0  0  0  # atno 3721 bound_to 3712
   -4.0805  -23.2968   10.6503 H   0  0  0  0  0  0  0  0  0  0  0  0  # atno 3767 bound_to 3762
    2.4938  -19.6799    8.3673 H   0  0  0  0  0  0  0  0  0  0  0  0  # atno 3841 bound_to 3832
    3.3384   -9.4260    3.8403 LP  0  0  0  0  0  0  0  0  0  0  0  0  # atno 4297 bound_to 1298
    4.6142   -8.5710    4.3951 LP  0  0  0  0  0  0  0  0  0  0  0  0  # atno 4298 bound_to 1298
    1.6859   -9.1108    8.3772 LP  0  0  0  0  0  0  0  0  0  0  0  0  # atno 4299 bound_to 2456
    1.7211   -7.9497    7.2295 LP  0  0  0  0  0  0  0  0  0  0  0  0  # atno 4300 bound_to 2456
    2.0295   -8.0054    6.0121 LP  0  0  0  0  0  0  0  0  0  0  0  0  # atno 4301 bound_to 2510
    2.6089   -7.7480    4.5072 LP  0  0  0  0  0  0  0  0  0  0  0  0  # atno 4302 bound_to 2510
   -3.1953  -17.0598   14.8041 LP  0  0  0  0  0  0  0  0  0  0  0  0  # atno 4306 bound_to 3712
   -3.4550  -16.8547   13.2050 LP  0  0  0  0  0  0  0  0  0  0  0  0  # atno 4307 bound_to 3712
    2.9027  -21.0736    9.0503 LP  0  0  0  0  0  0  0  0  0  0  0  0  # atno 4314 bound_to 3832
    1.4459  -20.3985    9.3479 LP  0  0  0  0  0  0  0  0  0  0  0  0  # atno 4315 bound_to 3832
   -5.4552  -22.4893   10.2969 LP  0  0  0  0  0  0  0  0  0  0  0  0  # atno 4318 bound_to 3762
   -4.5914  -22.0893   11.6238 LP  0  0  0  0  0  0  0  0  0  0  0  0  # atno 4319 bound_to 3762
   -5.4699   -5.3109    8.7718 LP  0  0  0  0  0  0  0  0  0  0  0  0  # atno 4320 bound_to 2467
   -4.3586   -4.7989    7.6904 LP  0  0  0  0  0  0  0  0  0  0  0  0  # atno 4321 bound_to 2467

> <Gold.Score>
     Score     S(PLP)   S(hbond)     S(cho)   S(metal)  DE(clash)   DE(tors)     intcor
     41.14     -35.51       2.03       0.00       0.00       0.00       0.43       0.37

> <Gold.PLP.Fitness>
41.1353

> <Gold.PLP.PLP>
-35.5123

> <Gold.PLP.part.hbond>
-2.1933

> <Gold.PLP.part.metal>
0.0000

> <Gold.PLP.part.buried>
-1.3177

> <Gold.PLP.part.nonpolar>
-32.3569

> <Gold.PLP.part.repulsive>
0.0516

> <Gold.PLP.ligand.clash>
0.0000

> <Gold.PLP.ligand.torsion>
0.4271

> <Gold.PLP.Chemscore.Hbond>
2.0349

> <Gold.PLP.Chemscore.CHOScore>
0.0000

> <Gold.PLP.Chemscore.Metal>
0.0000

> <Gold.Chemscore.Hbonds>
donor molecule, donor type, donor heavy atom, donor atom, acceptor molecule, acceptor atom, score
      L1  H     9    32       P1  1227  2.00
      L1  H     9    34       P1  1223  0.03

> <Gold.PLP.Chemscore.Internal.Correction>
0.3723

