#       Name:                EN300-193626_i001
#       Creating user name   fsindt
#       Creation time:       Wed Mar  1 05:10:16 2023


#       File generated by GOLD software.
#

@<TRIPOS>MOLECULE
EN300-193626_i001|amine_4|mol2|10283|dock13
    34    34     1
SMALL
USER_CHARGES


@<TRIPOS>ATOM
      1 C1           0.6077 -13.1763   7.7101 C.3            1 <1>                0.0000
      2 C2          -0.0071 -12.6471   9.0072 C.3            1 <1>                0.0000
      3 C3           0.0264 -13.7448  10.0724 C.3            1 <1>                0.0000
      4 C4           0.7938 -11.4382   9.4952 C.3            1 <1>                0.0000
      5 O5          -1.3607 -12.2565   8.7680 O.3            1 <1>                0.0000
      6 C6          -2.0708 -11.8694   9.9461 C.3            1 <1>                0.0000
      7 C7          -3.5788 -11.6705   9.7190 C.3            1 <1>                0.0000
      8 C8          -3.4777 -10.4490  10.6476 C.3            1 <1>                0.0000
      9 N9          -4.2784  -9.3016  10.1999 N.4            1 <1>                1.0000
     10 C10         -1.9967 -10.3623  10.2427 C.3            1 <1>                0.0000
     11 C11         -1.0636 -10.0113  11.4033 C.3            1 <1>                0.0000
     12 C12         -1.7503  -9.5044   9.0001 C.3            1 <1>                0.0000
     13 H13          0.0371 -14.0376   7.3624 H              1 <1>                0.0000
     14 H14          0.5839 -12.3942   6.9511 H              1 <1>                0.0000
     15 H15          1.6403 -13.4743   7.8925 H              1 <1>                0.0000
     16 H16          1.0588 -14.0427  10.2549 H              1 <1>                0.0000
     17 H17         -0.4117 -13.3677  10.9967 H              1 <1>                0.0000
     18 H18         -0.5443 -14.6060   9.7249 H              1 <1>                0.0000
     19 H19          0.7700 -10.6562   8.7363 H              1 <1>                0.0000
     20 H20          0.3558 -11.0612  10.4194 H              1 <1>                0.0000
     21 H21          1.8264 -11.7361   9.6776 H              1 <1>                0.0000
     22 H22         -1.8379 -12.4971  10.8062 H              1 <1>                0.0000
     23 H23         -3.8357 -11.4171   8.6904 H              1 <1>                0.0000
     24 H24         -4.1912 -12.4767  10.1230 H              1 <1>                0.0000
     25 H25         -3.6308 -10.6868  11.7003 H              1 <1>                0.0000
     26 H26         -1.3799 -10.5466  12.2986 H              1 <1>                0.0000
     27 H27         -0.0435 -10.2991  11.1492 H              1 <1>                0.0000
     28 H28         -1.1027  -8.9379  11.5891 H              1 <1>                0.0000
     29 H29         -1.7631  -8.4505   9.2778 H              1 <1>                0.0000
     30 H30         -0.7799  -9.7556   8.5718 H              1 <1>                0.0000
     31 H31         -2.5323  -9.6961   8.2653 H              1 <1>                0.0000
     32 H32         -3.7815  -8.4465  10.3994 H              1 <1>                0.0000
     33 H33         -4.4411  -9.3722   9.2066 H              1 <1>                0.0000
     34 H34         -5.1624  -9.2982  10.6862 H              1 <1>                0.0000
@<TRIPOS>BOND
    1    1    2 1     
    2    1   13 1     
    3    1   14 1     
    4    1   15 1     
    5    2    3 1     
    6    2    4 1     
    7    2    5 1     
    8    3   16 1     
    9    3   17 1     
   10    3   18 1     
   11    4   19 1     
   12    4   20 1     
   13    4   21 1     
   14    5    6 1     
   15    6    7 1     
   16    6   10 1     
   17    6   22 1     
   18    7    8 1     
   19    7   23 1     
   20    7   24 1     
   21    8    9 1     
   22    8   10 1     
   23    8   25 1     
   24    9   32 1     
   25    9   33 1     
   26    9   34 1     
   27   10   11 1     
   28   10   12 1     
   29   11   26 1     
   30   11   27 1     
   31   11   28 1     
   32   12   29 1     
   33   12   30 1     
   34   12   31 1     
@<TRIPOS>SUBSTRUCTURE
      1 ****           1
@<TRIPOS>SET
DONOR_HYDROGENS      STATIC     ATOMS    <user>   **** ""
3 32 33 34
ATOM$RED        STATIC     ATOMS    COLORGROUP SYSTEM
3 32 33 34
@<TRIPOS>COMMENT
> <Gold.Version>
2022.2.0

> <Gold.Id.Protein>
3pbl|protein|mol2

> <Gold.Protein.RotatedTorsions>
[ 1303 1298 1297 1294 ] final -154.42 input  179.99 | X-H torsion
[ 2461 2456 2455 2452 ] final  140.81 input   30.03 | X-H torsion
[ 2515 2510 2509 2506 ] final  -28.76 input  -89.99 | X-H torsion
[ 3721 3712 3711 3710 ] final  155.15 input -179.91 | X-H torsion
[ 3841 3832 3831 3830 ] final -172.66 input -179.91 | X-H torsion
[ 3767 3762 3761 3758 ] final -126.70 input  -89.99 | X-H torsion
[ 2472 2467 2466 2463 ] final  -57.57 input  -89.97 | X-H torsion

> <Gold.Protein.ActiveResidues>
 VAL82   VAL86   LEU89   PHE106  VAL107  ASP110  VAL111  MET112  CYS114  THR115 
 CYS181  SER182  ILE183  PHE188  VAL189  ILE190  SER192  SER193  SER196  TRP342 
 PHE345  PHE346  HIS349  VAL350  TYR365  THR369  GLY372  TYR373 

> <Gold.Protein.RotatedAtoms>
    4.6559   -8.6012    4.4364 H   0  0  0  0  0  0  0  0  0  0  0  0  # atno 1303 bound_to 1298
    1.9686   -8.8862    8.2516 H   0  0  0  0  0  0  0  0  0  0  0  0  # atno 2461 bound_to 2456
   -3.7106   -5.1739    8.9265 H   0  0  0  0  0  0  0  0  0  0  0  0  # atno 2472 bound_to 2467
    2.7145   -8.0041    4.3882 H   0  0  0  0  0  0  0  0  0  0  0  0  # atno 2515 bound_to 2510
   -3.2325  -16.8100   13.2467 H   0  0  0  0  0  0  0  0  0  0  0  0  # atno 3721 bound_to 3712
   -4.7555  -22.0047   11.5657 H   0  0  0  0  0  0  0  0  0  0  0  0  # atno 3767 bound_to 3762
    2.8896  -19.9684    8.3806 H   0  0  0  0  0  0  0  0  0  0  0  0  # atno 3841 bound_to 3832
    4.3575  -10.1571    4.8322 LP  0  0  0  0  0  0  0  0  0  0  0  0  # atno 4297 bound_to 1298
    3.3485   -9.3633    3.8230 LP  0  0  0  0  0  0  0  0  0  0  0  0  # atno 4298 bound_to 1298
    1.3714   -7.9201    7.0779 LP  0  0  0  0  0  0  0  0  0  0  0  0  # atno 4299 bound_to 2456
    0.3980   -9.0019    7.8188 LP  0  0  0  0  0  0  0  0  0  0  0  0  # atno 4300 bound_to 2456
    2.5410   -9.2460    5.4339 LP  0  0  0  0  0  0  0  0  0  0  0  0  # atno 4301 bound_to 2510
    2.0411   -7.7491    5.8536 LP  0  0  0  0  0  0  0  0  0  0  0  0  # atno 4302 bound_to 2510
   -2.6294  -18.2115   13.7465 LP  0  0  0  0  0  0  0  0  0  0  0  0  # atno 4306 bound_to 3712
   -3.1663  -17.1073   14.8231 LP  0  0  0  0  0  0  0  0  0  0  0  0  # atno 4307 bound_to 3712
    2.4824  -21.1542    9.3827 LP  0  0  0  0  0  0  0  0  0  0  0  0  # atno 4314 bound_to 3832
    1.4090  -19.9846    9.0001 LP  0  0  0  0  0  0  0  0  0  0  0  0  # atno 4315 bound_to 3832
   -3.9925  -23.2358   10.8115 LP  0  0  0  0  0  0  0  0  0  0  0  0  # atno 4318 bound_to 3762
   -5.3794  -22.6343   10.1941 LP  0  0  0  0  0  0  0  0  0  0  0  0  # atno 4319 bound_to 3762
   -5.3236   -5.3954    9.0509 LP  0  0  0  0  0  0  0  0  0  0  0  0  # atno 4320 bound_to 2467
   -4.6826   -4.8243    7.6618 LP  0  0  0  0  0  0  0  0  0  0  0  0  # atno 4321 bound_to 2467

> <Gold.Score>
     Score     S(PLP)   S(hbond)     S(cho)   S(metal)  DE(clash)   DE(tors)     intcor
     42.76     -39.97       0.98       0.00       0.00       0.00       0.25       0.37

> <Gold.PLP.Fitness>
42.7628

> <Gold.PLP.PLP>
-39.9736

> <Gold.PLP.part.hbond>
-0.9315

> <Gold.PLP.part.metal>
0.0000

> <Gold.PLP.part.buried>
-0.0297

> <Gold.PLP.part.nonpolar>
-40.2898

> <Gold.PLP.part.repulsive>
0.0704

> <Gold.PLP.ligand.clash>
0.0000

> <Gold.PLP.ligand.torsion>
0.2540

> <Gold.PLP.Chemscore.Hbond>
0.9750

> <Gold.PLP.Chemscore.CHOScore>
0.0000

> <Gold.PLP.Chemscore.Metal>
0.0000

> <Gold.Chemscore.Hbonds>
donor molecule, donor type, donor heavy atom, donor atom, acceptor molecule, acceptor atom, score
      L1  H     9    32       P1  2398  0.98

> <Gold.PLP.Chemscore.Internal.Correction>
0.3723

