#       Name:                EN300-193626_i001
#       Creating user name   fsindt
#       Creation time:       Wed Mar  1 05:10:15 2023


#       File generated by GOLD software.
#

@<TRIPOS>MOLECULE
EN300-193626_i001|amine_4|mol2|10283|dock12
    34    34     1
SMALL
USER_CHARGES


@<TRIPOS>ATOM
      1 C1          -0.9351 -12.9545  11.3782 C.3            1 <1>                0.0000
      2 C2          -1.1762 -11.9404  10.2582 C.3            1 <1>                0.0000
      3 C3          -2.6155 -11.4274  10.3360 C.3            1 <1>                0.0000
      4 C4          -0.2072 -10.7669  10.4156 C.3            1 <1>                0.0000
      5 O5          -0.9621 -12.5685   8.9927 O.3            1 <1>                0.0000
      6 C6           0.4119 -12.8268   8.6970 C.3            1 <1>                0.0000
      7 C7           0.6395 -13.4220   7.2974 C.3            1 <1>                0.0000
      8 C8           1.6951 -14.3348   7.9433 C.3            1 <1>                0.0000
      9 N9           1.6788 -15.7101   7.4272 N.4            1 <1>                1.0000
     10 C10          0.9231 -14.1625   9.2621 C.3            1 <1>                0.0000
     11 C11          1.8280 -14.0041  10.4856 C.3            1 <1>                0.0000
     12 C12         -0.1793 -15.2033   9.4674 C.3            1 <1>                0.0000
     13 H13         -1.6255 -13.7906  11.2661 H              1 <1>                0.0000
     14 H14          0.0903 -13.3200  11.3228 H              1 <1>                0.0000
     15 H15         -1.0985 -12.4754  12.3436 H              1 <1>                0.0000
     16 H16         -2.7788 -10.9483  11.3013 H              1 <1>                0.0000
     17 H17         -2.7873 -10.7048   9.5381 H              1 <1>                0.0000
     18 H18         -3.3059 -12.2634  10.2239 H              1 <1>                0.0000
     19 H19          0.8181 -11.1324  10.3602 H              1 <1>                0.0000
     20 H20         -0.3790 -10.0443   9.6177 H              1 <1>                0.0000
     21 H21         -0.3705 -10.2878  11.3810 H              1 <1>                0.0000
     22 H22          1.0597 -11.9794   8.9218 H              1 <1>                0.0000
     23 H23         -0.2236 -13.9609   6.9066 H              1 <1>                0.0000
     24 H24          1.0550 -12.7113   6.5830 H              1 <1>                0.0000
     25 H25          2.6950 -13.9013   7.9613 H              1 <1>                0.0000
     26 H26          2.6737 -13.3649  10.2319 H              1 <1>                0.0000
     27 H27          1.2620 -13.5516  11.2999 H              1 <1>                0.0000
     28 H28          2.1929 -14.9829  10.7968 H              1 <1>                0.0000
     29 H29          0.2624 -16.1362   9.8175 H              1 <1>                0.0000
     30 H30         -0.8907 -14.8377  10.2079 H              1 <1>                0.0000
     31 H31         -0.6951 -15.3774   8.5230 H              1 <1>                0.0000
     32 H32          0.8683 -15.8396   6.8406 H              1 <1>                0.0000
     33 H33          2.5148 -15.8766   6.8874 H              1 <1>                0.0000
     34 H34          1.6422 -16.3586   8.1994 H              1 <1>                0.0000
@<TRIPOS>BOND
    1    1    2 1     
    2    1   13 1     
    3    1   14 1     
    4    1   15 1     
    5    2    3 1     
    6    2    4 1     
    7    2    5 1     
    8    3   16 1     
    9    3   17 1     
   10    3   18 1     
   11    4   19 1     
   12    4   20 1     
   13    4   21 1     
   14    5    6 1     
   15    6    7 1     
   16    6   10 1     
   17    6   22 1     
   18    7    8 1     
   19    7   23 1     
   20    7   24 1     
   21    8    9 1     
   22    8   10 1     
   23    8   25 1     
   24    9   32 1     
   25    9   33 1     
   26    9   34 1     
   27   10   11 1     
   28   10   12 1     
   29   11   26 1     
   30   11   27 1     
   31   11   28 1     
   32   12   29 1     
   33   12   30 1     
   34   12   31 1     
@<TRIPOS>SUBSTRUCTURE
      1 ****           1
@<TRIPOS>SET
DONOR_HYDROGENS      STATIC     ATOMS    <user>   **** ""
3 32 33 34
ATOM$RED        STATIC     ATOMS    COLORGROUP SYSTEM
3 32 33 34
@<TRIPOS>COMMENT
> <Gold.Version>
2022.2.0

> <Gold.Id.Protein>
3pbl|protein|mol2

> <Gold.Protein.RotatedTorsions>
[ 1303 1298 1297 1294 ] final  -29.39 input  179.99 | X-H torsion
[ 2461 2456 2455 2452 ] final -115.72 input   30.03 | X-H torsion
[ 2515 2510 2509 2506 ] final   14.75 input  -89.99 | X-H torsion
[ 3721 3712 3711 3710 ] final  122.79 input -179.91 | X-H torsion
[ 3841 3832 3831 3830 ] final   75.04 input -179.91 | X-H torsion
[ 3767 3762 3761 3758 ] final   35.75 input  -89.99 | X-H torsion
[ 2472 2467 2466 2463 ] final  -36.18 input  -89.97 | X-H torsion

> <Gold.Protein.ActiveResidues>
 VAL82   VAL86   LEU89   PHE106  VAL107  ASP110  VAL111  MET112  CYS114  THR115 
 CYS181  SER182  ILE183  PHE188  VAL189  ILE190  SER192  SER193  SER196  TRP342 
 PHE345  PHE346  HIS349  VAL350  TYR365  THR369  GLY372  TYR373 

> <Gold.Protein.RotatedAtoms>
    3.3363   -9.4417    3.8456 H   0  0  0  0  0  0  0  0  0  0  0  0  # atno 1303 bound_to 1298
    0.5310   -9.1443    8.0075 H   0  0  0  0  0  0  0  0  0  0  0  0  # atno 2461 bound_to 2456
   -3.6349   -5.0507    8.6078 H   0  0  0  0  0  0  0  0  0  0  0  0  # atno 2472 bound_to 2467
    2.4384   -7.4997    4.7849 H   0  0  0  0  0  0  0  0  0  0  0  0  # atno 2515 bound_to 2510
   -3.0291  -17.1967   13.0416 H   0  0  0  0  0  0  0  0  0  0  0  0  # atno 3721 bound_to 3712
   -4.9059  -23.1111   10.0733 H   0  0  0  0  0  0  0  0  0  0  0  0  # atno 3767 bound_to 3762
    2.6680  -20.9559    9.4019 H   0  0  0  0  0  0  0  0  0  0  0  0  # atno 3841 bound_to 3832
    4.6033   -8.5641    4.3848 LP  0  0  0  0  0  0  0  0  0  0  0  0  # atno 4297 bound_to 1298
    4.4228  -10.1155    4.8614 LP  0  0  0  0  0  0  0  0  0  0  0  0  # atno 4298 bound_to 1298
    2.0985   -8.6967    8.1075 LP  0  0  0  0  0  0  0  0  0  0  0  0  # atno 4299 bound_to 2456
    1.1081   -7.9674    7.0332 LP  0  0  0  0  0  0  0  0  0  0  0  0  # atno 4300 bound_to 2456
    2.7787   -9.0965    4.7939 LP  0  0  0  0  0  0  0  0  0  0  0  0  # atno 4301 bound_to 2510
    2.0796   -8.4033    6.0967 LP  0  0  0  0  0  0  0  0  0  0  0  0  # atno 4302 bound_to 2510
   -2.6229  -18.1407   14.2752 LP  0  0  0  0  0  0  0  0  0  0  0  0  # atno 4306 bound_to 3712
   -3.4076  -16.7317   14.5311 LP  0  0  0  0  0  0  0  0  0  0  0  0  # atno 4307 bound_to 3712
    1.3968  -20.0390    9.0564 LP  0  0  0  0  0  0  0  0  0  0  0  0  # atno 4314 bound_to 3832
    2.7506  -19.9591    8.1466 LP  0  0  0  0  0  0  0  0  0  0  0  0  # atno 4315 bound_to 3832
   -5.2842  -21.9334   11.1395 LP  0  0  0  0  0  0  0  0  0  0  0  0  # atno 4318 bound_to 3762
   -3.9374  -22.8307   11.3580 LP  0  0  0  0  0  0  0  0  0  0  0  0  # atno 4319 bound_to 3762
   -5.0672   -5.4506    9.2825 LP  0  0  0  0  0  0  0  0  0  0  0  0  # atno 4320 bound_to 2467
   -5.0146   -4.8922    7.7489 LP  0  0  0  0  0  0  0  0  0  0  0  0  # atno 4321 bound_to 2467

> <Gold.Score>
     Score     S(PLP)   S(hbond)     S(cho)   S(metal)  DE(clash)   DE(tors)     intcor
     42.47     -33.89       2.92       0.00       0.00       0.00       0.27       0.37

> <Gold.PLP.Fitness>
42.4742

> <Gold.PLP.PLP>
-33.8892

> <Gold.PLP.part.hbond>
-2.0000

> <Gold.PLP.part.metal>
0.0000

> <Gold.PLP.part.buried>
-2.1675

> <Gold.PLP.part.nonpolar>
-30.2485

> <Gold.PLP.part.repulsive>
0.0513

> <Gold.PLP.ligand.clash>
0.0000

> <Gold.PLP.ligand.torsion>
0.2737

> <Gold.PLP.Chemscore.Hbond>
2.9200

> <Gold.PLP.Chemscore.CHOScore>
0.0000

> <Gold.PLP.Chemscore.Metal>
0.0000

> <Gold.Chemscore.Hbonds>
donor molecule, donor type, donor heavy atom, donor atom, acceptor molecule, acceptor atom, score
      L1  H     9    33       P1  1223  1.00
      L1  H     9    34       P1  1227  1.92

> <Gold.PLP.Chemscore.Internal.Correction>
0.3723

