#       Name:                EN300-193626_i001
#       Creating user name   fsindt
#       Creation time:       Wed Mar  1 05:10:10 2023


#       File generated by GOLD software.
#

@<TRIPOS>MOLECULE
EN300-193626_i001|amine_4|mol2|10283|dock3
    34    34     1
SMALL
USER_CHARGES


@<TRIPOS>ATOM
      1 C1          -1.2243 -11.6653  11.6101 C.3            1 <1>                0.0000
      2 C2          -0.9185 -11.8753  10.1257 C.3            1 <1>                0.0000
      3 C3          -2.1019 -11.3878   9.2874 C.3            1 <1>                0.0000
      4 C4           0.3353 -11.0846   9.7466 C.3            1 <1>                0.0000
      5 O5          -0.6986 -13.2651   9.8767 O.3            1 <1>                0.0000
      6 C6          -0.5029 -13.5847   8.4978 C.3            1 <1>                0.0000
      7 C7          -0.5446 -15.0935   8.2031 C.3            1 <1>                0.0000
      8 C8           0.6215 -14.8558   7.2293 C.3            1 <1>                0.0000
      9 N9           1.6437 -15.9102   7.2668 N.4            1 <1>                1.0000
     10 C10          0.9761 -13.6236   8.0783 C.3            1 <1>                0.0000
     11 C11          1.4102 -12.4128   7.2498 C.3            1 <1>                0.0000
     12 C12          1.9327 -13.9292   9.2325 C.3            1 <1>                0.0000
     13 H13         -2.1175 -12.2286  11.8803 H              1 <1>                0.0000
     14 H14         -0.3812 -12.0126  12.2074 H              1 <1>                0.0000
     15 H15         -1.3920 -10.6051  11.8001 H              1 <1>                0.0000
     16 H16         -2.2696 -10.3278   9.4774 H              1 <1>                0.0000
     17 H17         -1.8839 -11.5374   8.2298 H              1 <1>                0.0000
     18 H18         -2.9951 -11.9512   9.5575 H              1 <1>                0.0000
     19 H19          1.1783 -11.4318  10.3438 H              1 <1>                0.0000
     20 H20          0.5531 -11.2341   8.6890 H              1 <1>                0.0000
     21 H21          0.1676 -10.0244   9.9366 H              1 <1>                0.0000
     22 H22         -1.1313 -12.9924   7.8326 H              1 <1>                0.0000
     23 H23         -0.2789 -15.7130   9.0597 H              1 <1>                0.0000
     24 H24         -1.4631 -15.4175   7.7137 H              1 <1>                0.0000
     25 H25          0.3017 -14.6123   6.2162 H              1 <1>                0.0000
     26 H26          0.7794 -12.3332   6.3644 H              1 <1>                0.0000
     27 H27          1.3108 -11.5078   7.8492 H              1 <1>                0.0000
     28 H28          2.4498 -12.5347   6.9454 H              1 <1>                0.0000
     29 H29          2.9522 -13.9931   8.8523 H              1 <1>                0.0000
     30 H30          1.8712 -13.1342   9.9757 H              1 <1>                0.0000
     31 H31          1.6562 -14.8783   9.6920 H              1 <1>                0.0000
     32 H32          2.5381 -15.5208   7.0091 H              1 <1>                0.0000
     33 H33          1.6991 -16.2919   8.1992 H              1 <1>                0.0000
     34 H34          1.3959 -16.6420   6.6179 H              1 <1>                0.0000
@<TRIPOS>BOND
    1    1    2 1     
    2    1   13 1     
    3    1   14 1     
    4    1   15 1     
    5    2    3 1     
    6    2    4 1     
    7    2    5 1     
    8    3   16 1     
    9    3   17 1     
   10    3   18 1     
   11    4   19 1     
   12    4   20 1     
   13    4   21 1     
   14    5    6 1     
   15    6    7 1     
   16    6   10 1     
   17    6   22 1     
   18    7    8 1     
   19    7   23 1     
   20    7   24 1     
   21    8    9 1     
   22    8   10 1     
   23    8   25 1     
   24    9   32 1     
   25    9   33 1     
   26    9   34 1     
   27   10   11 1     
   28   10   12 1     
   29   11   26 1     
   30   11   27 1     
   31   11   28 1     
   32   12   29 1     
   33   12   30 1     
   34   12   31 1     
@<TRIPOS>SUBSTRUCTURE
      1 ****           1
@<TRIPOS>SET
DONOR_HYDROGENS      STATIC     ATOMS    <user>   **** ""
3 32 33 34
ATOM$RED        STATIC     ATOMS    COLORGROUP SYSTEM
3 32 33 34
@<TRIPOS>COMMENT
> <Gold.Version>
2022.2.0

> <Gold.Id.Protein>
3pbl|protein|mol2

> <Gold.Protein.RotatedTorsions>
[ 1303 1298 1297 1294 ] final  -42.43 input  179.99 | X-H torsion
[ 2461 2456 2455 2452 ] final -118.23 input   30.03 | X-H torsion
[ 2515 2510 2509 2506 ] final   67.48 input  -89.99 | X-H torsion
[ 3721 3712 3711 3710 ] final  106.61 input -179.91 | X-H torsion
[ 3841 3832 3831 3830 ] final   63.19 input -179.91 | X-H torsion
[ 3767 3762 3761 3758 ] final -140.86 input  -89.99 | X-H torsion
[ 2472 2467 2466 2463 ] final  175.42 input  -89.97 | X-H torsion

> <Gold.Protein.ActiveResidues>
 VAL82   VAL86   LEU89   PHE106  VAL107  ASP110  VAL111  MET112  CYS114  THR115 
 CYS181  SER182  ILE183  PHE188  VAL189  ILE190  SER192  SER193  SER196  TRP342 
 PHE345  PHE346  HIS349  VAL350  TYR365  THR369  GLY372  TYR373 

> <Gold.Protein.RotatedAtoms>
    3.3800   -9.2380    3.7969 H   0  0  0  0  0  0  0  0  0  0  0  0  # atno 1303 bound_to 1298
    0.5566   -9.1621    8.0343 H   0  0  0  0  0  0  0  0  0  0  0  0  # atno 2461 bound_to 2456
   -5.3865   -5.3695    8.9577 H   0  0  0  0  0  0  0  0  0  0  0  0  # atno 2472 bound_to 2467
    2.1149   -7.5100    5.5569 H   0  0  0  0  0  0  0  0  0  0  0  0  # atno 2515 bound_to 2510
   -2.9082  -17.4084   13.0376 H   0  0  0  0  0  0  0  0  0  0  0  0  # atno 3721 bound_to 3712
   -4.5582  -22.1085   11.6314 H   0  0  0  0  0  0  0  0  0  0  0  0  # atno 3767 bound_to 3762
    2.5138  -20.9499    9.4921 H   0  0  0  0  0  0  0  0  0  0  0  0  # atno 3841 bound_to 3832
    4.7323   -8.6727    4.5166 LP  0  0  0  0  0  0  0  0  0  0  0  0  # atno 4297 bound_to 1298
    4.2501  -10.2107    4.7783 LP  0  0  0  0  0  0  0  0  0  0  0  0  # atno 4298 bound_to 1298
    2.1122   -8.6669    8.0826 LP  0  0  0  0  0  0  0  0  0  0  0  0  # atno 4299 bound_to 2456
    1.0688   -7.9793    7.0314 LP  0  0  0  0  0  0  0  0  0  0  0  0  # atno 4300 bound_to 2456
    2.8068   -8.3802    4.3612 LP  0  0  0  0  0  0  0  0  0  0  0  0  # atno 4301 bound_to 2510
    2.3751   -9.1093    5.7571 LP  0  0  0  0  0  0  0  0  0  0  0  0  # atno 4302 bound_to 2510
   -2.6755  -18.0131   14.5066 LP  0  0  0  0  0  0  0  0  0  0  0  0  # atno 4306 bound_to 3712
   -3.4946  -16.6150   14.3043 LP  0  0  0  0  0  0  0  0  0  0  0  0  # atno 4307 bound_to 3712
    1.4382  -19.9084    8.9138 LP  0  0  0  0  0  0  0  0  0  0  0  0  # atno 4314 bound_to 3832
    2.8873  -20.0966    8.1850 LP  0  0  0  0  0  0  0  0  0  0  0  0  # atno 4315 bound_to 3832
   -4.1023  -23.3061   10.6192 LP  0  0  0  0  0  0  0  0  0  0  0  0  # atno 4318 bound_to 3762
   -5.4669  -22.4602   10.3209 LP  0  0  0  0  0  0  0  0  0  0  0  0  # atno 4319 bound_to 3762
   -4.5683   -4.8109    7.6597 LP  0  0  0  0  0  0  0  0  0  0  0  0  # atno 4320 bound_to 2467
   -3.7623   -5.2131    9.0218 LP  0  0  0  0  0  0  0  0  0  0  0  0  # atno 4321 bound_to 2467

> <Gold.Score>
     Score     S(PLP)   S(hbond)     S(cho)   S(metal)  DE(clash)   DE(tors)     intcor
     43.52     -35.36       2.78       0.00       0.00       0.00       0.27       0.37

> <Gold.PLP.Fitness>
43.5159

> <Gold.PLP.PLP>
-35.3568

> <Gold.PLP.part.hbond>
-2.1525

> <Gold.PLP.part.metal>
0.0000

> <Gold.PLP.part.buried>
-1.2101

> <Gold.PLP.part.nonpolar>
-32.1220

> <Gold.PLP.part.repulsive>
0.0438

> <Gold.PLP.ligand.clash>
0.0000

> <Gold.PLP.ligand.torsion>
0.2742

> <Gold.PLP.Chemscore.Hbond>
2.7784

> <Gold.PLP.Chemscore.CHOScore>
0.0000

> <Gold.PLP.Chemscore.Metal>
0.0000

> <Gold.Chemscore.Hbonds>
donor molecule, donor type, donor heavy atom, donor atom, acceptor molecule, acceptor atom, score
      L1  H     9    32       P1  1223  1.00
      L1  H     9    33       P1  1227  1.78

> <Gold.PLP.Chemscore.Internal.Correction>
0.3723

