#       Name:                EN300-193626_i001
#       Creating user name   fsindt
#       Creation time:       Wed Mar  1 05:10:11 2023


#       File generated by GOLD software.
#

@<TRIPOS>MOLECULE
EN300-193626_i001|amine_4|mol2|10283|dock4
    34    34     1
SMALL
USER_CHARGES


@<TRIPOS>ATOM
      1 C1           1.4231 -21.9523  13.8466 C.3            1 <1>                0.0000
      2 C2           0.4347 -20.9816  13.1974 C.3            1 <1>                0.0000
      3 C3           0.2966 -21.3131  11.7102 C.3            1 <1>                0.0000
      4 C4          -0.9295 -21.1118  13.8778 C.3            1 <1>                0.0000
      5 O5           0.9147 -19.6437  13.3446 O.3            1 <1>                0.0000
      6 C6          -0.0424 -18.6412  12.9967 C.3            1 <1>                0.0000
      7 C7          -0.1046 -18.3459  11.4888 C.3            1 <1>                0.0000
      8 C8          -0.2493 -16.8620  11.8652 C.3            1 <1>                0.0000
      9 N9           0.5094 -15.9566  10.9918 N.4            1 <1>                1.0000
     10 C10          0.4768 -17.2050  13.1766 C.3            1 <1>                0.0000
     11 C11         -0.1013 -16.4933  14.4015 C.3            1 <1>                0.0000
     12 C12          1.9994 -17.0873  13.0830 C.3            1 <1>                0.0000
     13 H13          2.3951 -21.8595  13.3619 H              1 <1>                0.0000
     14 H14          1.5215 -21.7162  14.9062 H              1 <1>                0.0000
     15 H15          1.0571 -22.9729  13.7343 H              1 <1>                0.0000
     16 H16         -0.0694 -22.3336  11.5979 H              1 <1>                0.0000
     17 H17         -0.4077 -20.6215  11.2476 H              1 <1>                0.0000
     18 H18          1.2685 -21.2203  11.2254 H              1 <1>                0.0000
     19 H19         -0.8311 -20.8756  14.9373 H              1 <1>                0.0000
     20 H20         -1.6337 -20.4203  13.4152 H              1 <1>                0.0000
     21 H21         -1.2956 -22.1324  13.7655 H              1 <1>                0.0000
     22 H22         -1.0193 -18.8137  13.4485 H              1 <1>                0.0000
     23 H23          0.8212 -18.5742  10.9606 H              1 <1>                0.0000
     24 H24         -0.9858 -18.7600  10.9987 H              1 <1>                0.0000
     25 H25         -1.2829 -16.5461  12.0065 H              1 <1>                0.0000
     26 H26         -1.1893 -16.4850  14.3371 H              1 <1>                0.0000
     27 H27          0.2053 -17.0192  15.3056 H              1 <1>                0.0000
     28 H28          0.2685 -15.4683  14.4343 H              1 <1>                0.0000
     29 H29          2.2887 -16.0398  13.1663 H              1 <1>                0.0000
     30 H30          2.4581 -17.6564  13.8916 H              1 <1>                0.0000
     31 H31          2.3360 -17.4822  12.1244 H              1 <1>                0.0000
     32 H32          0.9383 -15.2330  11.5489 H              1 <1>                0.0000
     33 H33          1.2254 -16.4776  10.5081 H              1 <1>                0.0000
     34 H34         -0.1145 -15.5376  10.3186 H              1 <1>                0.0000
@<TRIPOS>BOND
    1    1    2 1     
    2    1   13 1     
    3    1   14 1     
    4    1   15 1     
    5    2    3 1     
    6    2    4 1     
    7    2    5 1     
    8    3   16 1     
    9    3   17 1     
   10    3   18 1     
   11    4   19 1     
   12    4   20 1     
   13    4   21 1     
   14    5    6 1     
   15    6    7 1     
   16    6   10 1     
   17    6   22 1     
   18    7    8 1     
   19    7   23 1     
   20    7   24 1     
   21    8    9 1     
   22    8   10 1     
   23    8   25 1     
   24    9   32 1     
   25    9   33 1     
   26    9   34 1     
   27   10   11 1     
   28   10   12 1     
   29   11   26 1     
   30   11   27 1     
   31   11   28 1     
   32   12   29 1     
   33   12   30 1     
   34   12   31 1     
@<TRIPOS>SUBSTRUCTURE
      1 ****           1
@<TRIPOS>SET
DONOR_HYDROGENS      STATIC     ATOMS    <user>   **** ""
3 32 33 34
ATOM$RED        STATIC     ATOMS    COLORGROUP SYSTEM
3 32 33 34
@<TRIPOS>COMMENT
> <Gold.Version>
2022.2.0

> <Gold.Id.Protein>
3pbl|protein|mol2

> <Gold.Protein.RotatedTorsions>
[ 1303 1298 1297 1294 ] final  -99.12 input  179.99 | X-H torsion
[ 2461 2456 2455 2452 ] final   23.69 input   30.03 | X-H torsion
[ 2515 2510 2509 2506 ] final  -14.39 input  -89.99 | X-H torsion
[ 3721 3712 3711 3710 ] final   64.61 input -179.91 | X-H torsion
[ 3841 3832 3831 3830 ] final -119.77 input -179.91 | X-H torsion
[ 3767 3762 3761 3758 ] final  -77.95 input  -89.99 | X-H torsion
[ 2472 2467 2466 2463 ] final  -86.19 input  -89.97 | X-H torsion

> <Gold.Protein.ActiveResidues>
 VAL82   VAL86   LEU89   PHE106  VAL107  ASP110  VAL111  MET112  CYS114  THR115 
 CYS181  SER182  ILE183  PHE188  VAL189  ILE190  SER192  SER193  SER196  TRP342 
 PHE345  PHE346  HIS349  VAL350  TYR365  THR369  GLY372  TYR373 

> <Gold.Protein.RotatedAtoms>
    3.9465   -8.5572    3.9264 H   0  0  0  0  0  0  0  0  0  0  0  0  # atno 1303 bound_to 1298
    1.4168   -7.9174    7.0911 H   0  0  0  0  0  0  0  0  0  0  0  0  # atno 2461 bound_to 2456
   -3.9931   -5.3267    9.2642 H   0  0  0  0  0  0  0  0  0  0  0  0  # atno 2472 bound_to 2467
    2.6341   -7.8000    4.4745 H   0  0  0  0  0  0  0  0  0  0  0  0  # atno 2515 bound_to 2510
   -2.6165  -17.8722   13.3296 H   0  0  0  0  0  0  0  0  0  0  0  0  # atno 3721 bound_to 3712
   -5.3418  -21.9547   11.0561 H   0  0  0  0  0  0  0  0  0  0  0  0  # atno 3767 bound_to 3762
    2.2206  -19.5929    8.4586 H   0  0  0  0  0  0  0  0  0  0  0  0  # atno 3841 bound_to 3832
    4.8763   -9.4581    4.9214 LP  0  0  0  0  0  0  0  0  0  0  0  0  # atno 4297 bound_to 1298
    3.5394  -10.1063    4.2439 LP  0  0  0  0  0  0  0  0  0  0  0  0  # atno 4298 bound_to 1298
    0.3818   -8.9734    7.7847 LP  0  0  0  0  0  0  0  0  0  0  0  0  # atno 4299 bound_to 2456
    1.9393   -8.9172    8.2722 LP  0  0  0  0  0  0  0  0  0  0  0  0  # atno 4300 bound_to 2456
    2.6340   -9.2540    5.2173 LP  0  0  0  0  0  0  0  0  0  0  0  0  # atno 4301 bound_to 2510
    2.0285   -7.9454    5.9838 LP  0  0  0  0  0  0  0  0  0  0  0  0  # atno 4302 bound_to 2510
   -2.9467  -17.4861   14.8526 LP  0  0  0  0  0  0  0  0  0  0  0  0  # atno 4306 bound_to 3712
   -3.5602  -16.6064   13.6212 LP  0  0  0  0  0  0  0  0  0  0  0  0  # atno 4307 bound_to 3712
    3.0638  -20.9134    8.8071 LP  0  0  0  0  0  0  0  0  0  0  0  0  # atno 4314 bound_to 3832
    1.6004  -20.6591    9.4856 LP  0  0  0  0  0  0  0  0  0  0  0  0  # atno 4315 bound_to 3832
   -3.9661  -22.7547   11.4225 LP  0  0  0  0  0  0  0  0  0  0  0  0  # atno 4318 bound_to 3762
   -4.8198  -23.1654   10.0925 LP  0  0  0  0  0  0  0  0  0  0  0  0  # atno 4319 bound_to 3762
   -5.5006   -5.2666    8.6395 LP  0  0  0  0  0  0  0  0  0  0  0  0  # atno 4320 bound_to 2467
   -4.2230   -4.8003    7.7356 LP  0  0  0  0  0  0  0  0  0  0  0  0  # atno 4321 bound_to 2467

> <Gold.Score>
     Score     S(PLP)   S(hbond)     S(cho)   S(metal)  DE(clash)   DE(tors)     intcor
     34.84     -28.89       2.00       0.00       0.00       0.00       0.21       0.37

> <Gold.PLP.Fitness>
34.8352

> <Gold.PLP.PLP>
-28.8893

> <Gold.PLP.part.hbond>
-1.0000

> <Gold.PLP.part.metal>
0.0000

> <Gold.PLP.part.buried>
-3.1799

> <Gold.PLP.part.nonpolar>
-25.0576

> <Gold.PLP.part.repulsive>
0.0181

> <Gold.PLP.ligand.clash>
0.0000

> <Gold.PLP.ligand.torsion>
0.2132

> <Gold.PLP.Chemscore.Hbond>
2.0000

> <Gold.PLP.Chemscore.CHOScore>
0.0000

> <Gold.PLP.Chemscore.Metal>
0.0000

> <Gold.Chemscore.Hbonds>
donor molecule, donor type, donor heavy atom, donor atom, acceptor molecule, acceptor atom, score
      L1  H     9    33       P1  1227  2.00

> <Gold.PLP.Chemscore.Internal.Correction>
0.3723

