#       Name:                EN300-193626_i001
#       Creating user name   fsindt
#       Creation time:       Wed Mar  1 05:10:21 2023


#       File generated by GOLD software.
#

@<TRIPOS>MOLECULE
EN300-193626_i001|amine_4|mol2|10283|dock19
    34    34     1
SMALL
USER_CHARGES


@<TRIPOS>ATOM
      1 C1           1.3648 -12.8058   7.7873 C.3            1 <1>                0.0000
      2 C2           0.2759 -13.7360   8.3257 C.3            1 <1>                0.0000
      3 C3          -0.7011 -14.0824   7.2005 C.3            1 <1>                0.0000
      4 C4           0.9181 -15.0191   8.8567 C.3            1 <1>                0.0000
      5 O5          -0.4282 -13.0826   9.3837 O.3            1 <1>                0.0000
      6 C6          -1.2945 -12.0344   8.9449 C.3            1 <1>                0.0000
      7 C7          -0.5706 -10.7007   8.6957 C.3            1 <1>                0.0000
      8 C8          -1.7867 -10.0111   9.3364 C.3            1 <1>                0.0000
      9 N9          -1.4315  -8.8875  10.2136 N.4            1 <1>                1.0000
     10 C10         -2.0360 -11.3273  10.0917 C.3            1 <1>                0.0000
     11 C11         -3.5150 -11.7062  10.1909 C.3            1 <1>                0.0000
     12 C12         -1.3086 -11.4103  11.4351 C.3            1 <1>                0.0000
     13 H13          0.9073 -11.8915   7.4090 H              1 <1>                0.0000
     14 H14          2.0609 -12.5589   8.5890 H              1 <1>                0.0000
     15 H15          1.9020 -13.3041   6.9802 H              1 <1>                0.0000
     16 H16         -0.1640 -14.5806   6.3935 H              1 <1>                0.0000
     17 H17         -1.4769 -14.7451   7.5841 H              1 <1>                0.0000
     18 H18         -1.1587 -13.1682   6.8222 H              1 <1>                0.0000
     19 H19          1.6142 -14.7724   9.6583 H              1 <1>                0.0000
     20 H20          0.1423 -15.6819   9.2402 H              1 <1>                0.0000
     21 H21          1.4553 -15.5175   8.0497 H              1 <1>                0.0000
     22 H22         -1.9447 -12.3381   8.1245 H              1 <1>                0.0000
     23 H23          0.3483 -10.5886   9.2712 H              1 <1>                0.0000
     24 H24         -0.4412 -10.4648   7.6395 H              1 <1>                0.0000
     25 H25         -2.5719  -9.7597   8.6235 H              1 <1>                0.0000
     26 H26         -4.0101 -11.4890   9.2444 H              1 <1>                0.0000
     27 H27         -3.6035 -12.7700  10.4114 H              1 <1>                0.0000
     28 H28         -3.9852 -11.1296  10.9875 H              1 <1>                0.0000
     29 H29         -1.8631 -10.8450  12.1841 H              1 <1>                0.0000
     30 H30         -1.2372 -12.4526  11.7458 H              1 <1>                0.0000
     31 H31         -0.3071 -10.9923  11.3324 H              1 <1>                0.0000
     32 H32         -1.3508  -9.2155  11.1643 H              1 <1>                0.0000
     33 H33         -0.5506  -8.4949   9.9172 H              1 <1>                0.0000
     34 H34         -2.1494  -8.1803  10.1616 H              1 <1>                0.0000
@<TRIPOS>BOND
    1    1    2 1     
    2    1   13 1     
    3    1   14 1     
    4    1   15 1     
    5    2    3 1     
    6    2    4 1     
    7    2    5 1     
    8    3   16 1     
    9    3   17 1     
   10    3   18 1     
   11    4   19 1     
   12    4   20 1     
   13    4   21 1     
   14    5    6 1     
   15    6    7 1     
   16    6   10 1     
   17    6   22 1     
   18    7    8 1     
   19    7   23 1     
   20    7   24 1     
   21    8    9 1     
   22    8   10 1     
   23    8   25 1     
   24    9   32 1     
   25    9   33 1     
   26    9   34 1     
   27   10   11 1     
   28   10   12 1     
   29   11   26 1     
   30   11   27 1     
   31   11   28 1     
   32   12   29 1     
   33   12   30 1     
   34   12   31 1     
@<TRIPOS>SUBSTRUCTURE
      1 ****           1
@<TRIPOS>SET
DONOR_HYDROGENS      STATIC     ATOMS    <user>   **** ""
3 32 33 34
ATOM$RED        STATIC     ATOMS    COLORGROUP SYSTEM
3 32 33 34
@<TRIPOS>COMMENT
> <Gold.Version>
2022.2.0

> <Gold.Id.Protein>
3pbl|protein|mol2

> <Gold.Protein.RotatedTorsions>
[ 1303 1298 1297 1294 ] final  -67.90 input  179.99 | X-H torsion
[ 2461 2456 2455 2452 ] final   29.92 input   30.03 | X-H torsion
[ 2515 2510 2509 2506 ] final -179.12 input  -89.99 | X-H torsion
[ 3721 3712 3711 3710 ] final  -80.24 input -179.91 | X-H torsion
[ 3841 3832 3831 3830 ] final   33.92 input -179.91 | X-H torsion
[ 3767 3762 3761 3758 ] final  -40.79 input  -89.99 | X-H torsion
[ 2472 2467 2466 2463 ] final  -87.81 input  -89.97 | X-H torsion

> <Gold.Protein.ActiveResidues>
 VAL82   VAL86   LEU89   PHE106  VAL107  ASP110  VAL111  MET112  CYS114  THR115 
 CYS181  SER182  ILE183  PHE188  VAL189  ILE190  SER192  SER193  SER196  TRP342 
 PHE345  PHE346  HIS349  VAL350  TYR365  THR369  GLY372  TYR373 

> <Gold.Protein.RotatedAtoms>
    3.5717   -8.8694    3.7870 H   0  0  0  0  0  0  0  0  0  0  0  0  # atno 1303 bound_to 1298
    1.5133   -7.9179    7.1253 H   0  0  0  0  0  0  0  0  0  0  0  0  # atno 2461 bound_to 2456
   -4.0141   -5.3342    9.2786 H   0  0  0  0  0  0  0  0  0  0  0  0  # atno 2472 bound_to 2467
    2.3298   -9.0461    5.8327 H   0  0  0  0  0  0  0  0  0  0  0  0  # atno 2515 bound_to 2510
   -2.9523  -17.0683   14.7325 H   0  0  0  0  0  0  0  0  0  0  0  0  # atno 3721 bound_to 3712
   -5.5110  -22.2340   10.5517 H   0  0  0  0  0  0  0  0  0  0  0  0  # atno 3767 bound_to 3762
    2.1169  -20.8141    9.6162 H   0  0  0  0  0  0  0  0  0  0  0  0  # atno 3841 bound_to 3832
    4.8889   -8.9823    4.7455 LP  0  0  0  0  0  0  0  0  0  0  0  0  # atno 4297 bound_to 1298
    3.9018  -10.2698    4.5592 LP  0  0  0  0  0  0  0  0  0  0  0  0  # atno 4298 bound_to 1298
    0.3542   -8.9086    7.7103 LP  0  0  0  0  0  0  0  0  0  0  0  0  # atno 4299 bound_to 2456
    1.8704   -8.9814    8.3123 LP  0  0  0  0  0  0  0  0  0  0  0  0  # atno 4300 bound_to 2456
    2.1454   -7.4668    5.4621 LP  0  0  0  0  0  0  0  0  0  0  0  0  # atno 4301 bound_to 2510
    2.8216   -8.4859    4.3801 LP  0  0  0  0  0  0  0  0  0  0  0  0  # atno 4302 bound_to 2510
   -3.4666  -16.8304   13.2303 LP  0  0  0  0  0  0  0  0  0  0  0  0  # atno 4306 bound_to 3712
   -2.6525  -18.1902   13.6238 LP  0  0  0  0  0  0  0  0  0  0  0  0  # atno 4307 bound_to 3712
    1.6832  -19.6845    8.5617 LP  0  0  0  0  0  0  0  0  0  0  0  0  # atno 4314 bound_to 3832
    3.1009  -20.4773    8.3937 LP  0  0  0  0  0  0  0  0  0  0  0  0  # atno 4315 bound_to 3832
   -4.2991  -22.3064   11.6439 LP  0  0  0  0  0  0  0  0  0  0  0  0  # atno 4318 bound_to 3762
   -4.3175  -23.3345   10.3753 LP  0  0  0  0  0  0  0  0  0  0  0  0  # atno 4319 bound_to 3762
   -5.5040   -5.2580    8.6146 LP  0  0  0  0  0  0  0  0  0  0  0  0  # atno 4320 bound_to 2467
   -4.1987   -4.8014    7.7461 LP  0  0  0  0  0  0  0  0  0  0  0  0  # atno 4321 bound_to 2467

> <Gold.Score>
     Score     S(PLP)   S(hbond)     S(cho)   S(metal)  DE(clash)   DE(tors)     intcor
     40.06     -37.17       0.99       0.00       0.00       0.00       0.23       0.37

> <Gold.PLP.Fitness>
40.0610

> <Gold.PLP.PLP>
-37.1700

> <Gold.PLP.part.hbond>
-1.0000

> <Gold.PLP.part.metal>
0.0000

> <Gold.PLP.part.buried>
2.2948

> <Gold.PLP.part.nonpolar>
-39.7199

> <Gold.PLP.part.repulsive>
0.1808

> <Gold.PLP.ligand.clash>
0.0000

> <Gold.PLP.ligand.torsion>
0.2278

> <Gold.PLP.Chemscore.Hbond>
0.9920

> <Gold.PLP.Chemscore.CHOScore>
0.0000

> <Gold.PLP.Chemscore.Metal>
0.0000

> <Gold.Chemscore.Hbonds>
donor molecule, donor type, donor heavy atom, donor atom, acceptor molecule, acceptor atom, score
      L1  H     9    34       P1  2398  0.99

> <Gold.PLP.Chemscore.Internal.Correction>
0.3705

