#       Name:                EN300-193626_i001
#       Creating user name   fsindt
#       Creation time:       Wed Mar  1 05:10:13 2023


#       File generated by GOLD software.
#

@<TRIPOS>MOLECULE
EN300-193626_i001|amine_4|mol2|10283|dock8
    34    34     1
SMALL
USER_CHARGES


@<TRIPOS>ATOM
      1 C1           1.7406 -22.5963  14.1011 C.3            1 <1>                0.0000
      2 C2           0.5820 -21.6030  13.9924 C.3            1 <1>                0.0000
      3 C3          -0.3558 -22.0349  12.8633 C.3            1 <1>                0.0000
      4 C4          -0.1898 -21.5733  15.3131 C.3            1 <1>                0.0000
      5 O5           1.0966 -20.2998  13.7120 O.3            1 <1>                0.0000
      6 C6           0.0896 -19.3236  13.4384 C.3            1 <1>                0.0000
      7 C7          -0.2244 -19.1653  11.9413 C.3            1 <1>                0.0000
      8 C8          -0.3126 -17.6520  12.2003 C.3            1 <1>                0.0000
      9 N9           0.2852 -16.8368  11.1344 N.4            1 <1>                1.0000
     10 C10          0.6236 -17.8821  13.3984 C.3            1 <1>                0.0000
     11 C11          0.2535 -17.0570  14.6326 C.3            1 <1>                0.0000
     12 C12          2.1087 -17.7882  13.0427 C.3            1 <1>                0.0000
     13 H13          2.2905 -22.6176  13.1601 H              1 <1>                0.0000
     14 H14          2.4087 -22.2887  14.9055 H              1 <1>                0.0000
     15 H15          1.3480 -23.5905  14.3150 H              1 <1>                0.0000
     16 H16         -0.7483 -23.0290  13.0772 H              1 <1>                0.0000
     17 H17         -1.1813 -21.3272  12.7859 H              1 <1>                0.0000
     18 H18          0.1940 -22.0561  11.9223 H              1 <1>                0.0000
     19 H19          0.4782 -21.2656  16.1175 H              1 <1>                0.0000
     20 H20         -1.0153 -20.8656  15.2357 H              1 <1>                0.0000
     21 H21         -0.5824 -22.5674  15.5271 H              1 <1>                0.0000
     22 H22         -0.7976 -19.4450  14.0601 H              1 <1>                0.0000
     23 H23          0.6019 -19.4493  11.2896 H              1 <1>                0.0000
     24 H24         -1.1725 -19.6134  11.6442 H              1 <1>                0.0000
     25 H25         -1.3099 -17.3146  12.4822 H              1 <1>                0.0000
     26 H26         -0.8301 -17.0440  14.7495 H              1 <1>                0.0000
     27 H27          0.7091 -17.5020  15.5172 H              1 <1>                0.0000
     28 H28          0.6179 -16.0369  14.5103 H              1 <1>                0.0000
     29 H29          2.4021 -16.7403  12.9813 H              1 <1>                0.0000
     30 H30          2.6987 -18.2863  13.8121 H              1 <1>                0.0000
     31 H31          2.2832 -18.2714  12.0813 H              1 <1>                0.0000
     32 H32          0.5062 -15.9209  11.4954 H              1 <1>                0.0000
     33 H33          1.1291 -17.2808  10.8045 H              1 <1>                0.0000
     34 H34         -0.3690 -16.7487  10.3713 H              1 <1>                0.0000
@<TRIPOS>BOND
    1    1    2 1     
    2    1   13 1     
    3    1   14 1     
    4    1   15 1     
    5    2    3 1     
    6    2    4 1     
    7    2    5 1     
    8    3   16 1     
    9    3   17 1     
   10    3   18 1     
   11    4   19 1     
   12    4   20 1     
   13    4   21 1     
   14    5    6 1     
   15    6    7 1     
   16    6   10 1     
   17    6   22 1     
   18    7    8 1     
   19    7   23 1     
   20    7   24 1     
   21    8    9 1     
   22    8   10 1     
   23    8   25 1     
   24    9   32 1     
   25    9   33 1     
   26    9   34 1     
   27   10   11 1     
   28   10   12 1     
   29   11   26 1     
   30   11   27 1     
   31   11   28 1     
   32   12   29 1     
   33   12   30 1     
   34   12   31 1     
@<TRIPOS>SUBSTRUCTURE
      1 ****           1
@<TRIPOS>SET
DONOR_HYDROGENS      STATIC     ATOMS    <user>   **** ""
3 32 33 34
ATOM$RED        STATIC     ATOMS    COLORGROUP SYSTEM
3 32 33 34
@<TRIPOS>COMMENT
> <Gold.Version>
2022.2.0

> <Gold.Id.Protein>
3pbl|protein|mol2

> <Gold.Protein.RotatedTorsions>
[ 1303 1298 1297 1294 ] final   -2.28 input  179.99 | X-H torsion
[ 2461 2456 2455 2452 ] final -115.60 input   30.03 | X-H torsion
[ 2515 2510 2509 2506 ] final  -10.79 input  -89.99 | X-H torsion
[ 3721 3712 3711 3710 ] final  -85.71 input -179.91 | X-H torsion
[ 3841 3832 3831 3830 ] final   72.70 input -179.91 | X-H torsion
[ 3767 3762 3761 3758 ] final  131.57 input  -89.99 | X-H torsion
[ 2472 2467 2466 2463 ] final  -96.45 input  -89.97 | X-H torsion

> <Gold.Protein.ActiveResidues>
 VAL82   VAL86   LEU89   PHE106  VAL107  ASP110  VAL111  MET112  CYS114  THR115 
 CYS181  SER182  ILE183  PHE188  VAL189  ILE190  SER192  SER193  SER196  TRP342 
 PHE345  PHE346  HIS349  VAL350  TYR365  THR369  GLY372  TYR373 

> <Gold.Protein.RotatedAtoms>
    3.3750   -9.8424    4.0280 H   0  0  0  0  0  0  0  0  0  0  0  0  # atno 1303 bound_to 1298
    0.5297   -9.1433    8.0061 H   0  0  0  0  0  0  0  0  0  0  0  0  # atno 2461 bound_to 2456
   -4.1338   -5.3715    9.3456 H   0  0  0  0  0  0  0  0  0  0  0  0  # atno 2472 bound_to 2467
    2.6118   -7.7537    4.5037 H   0  0  0  0  0  0  0  0  0  0  0  0  # atno 2515 bound_to 2510
   -2.9933  -17.0004   14.7088 H   0  0  0  0  0  0  0  0  0  0  0  0  # atno 3721 bound_to 3712
   -3.9152  -23.0909   11.0616 H   0  0  0  0  0  0  0  0  0  0  0  0  # atno 3767 bound_to 3762
    2.6385  -20.9570    9.4212 H   0  0  0  0  0  0  0  0  0  0  0  0  # atno 3841 bound_to 3832
    4.2644   -8.4758    4.1150 LP  0  0  0  0  0  0  0  0  0  0  0  0  # atno 4297 bound_to 1298
    4.7230   -9.8029    4.9487 LP  0  0  0  0  0  0  0  0  0  0  0  0  # atno 4298 bound_to 1298
    2.0977   -8.6982    8.1087 LP  0  0  0  0  0  0  0  0  0  0  0  0  # atno 4299 bound_to 2456
    1.1101   -7.9668    7.0334 LP  0  0  0  0  0  0  0  0  0  0  0  0  # atno 4300 bound_to 2456
    2.6556   -9.2469    5.1627 LP  0  0  0  0  0  0  0  0  0  0  0  0  # atno 4301 bound_to 2510
    2.0293   -7.9988    6.0092 LP  0  0  0  0  0  0  0  0  0  0  0  0  # atno 4302 bound_to 2510
   -3.4368  -16.8920   13.1695 LP  0  0  0  0  0  0  0  0  0  0  0  0  # atno 4306 bound_to 3712
   -2.6350  -18.2070   13.7120 LP  0  0  0  0  0  0  0  0  0  0  0  0  # atno 4307 bound_to 3712
    1.4021  -20.0118    9.0288 LP  0  0  0  0  0  0  0  0  0  0  0  0  # atno 4314 bound_to 3832
    2.7794  -19.9849    8.1519 LP  0  0  0  0  0  0  0  0  0  0  0  0  # atno 4315 bound_to 3832
   -5.2074  -22.8566   10.0910 LP  0  0  0  0  0  0  0  0  0  0  0  0  # atno 4318 bound_to 3762
   -5.0044  -21.9277   11.4186 LP  0  0  0  0  0  0  0  0  0  0  0  0  # atno 4319 bound_to 3762
   -5.5094   -5.2104    8.4808 LP  0  0  0  0  0  0  0  0  0  0  0  0  # atno 4320 bound_to 2467
   -4.0736   -4.8117    7.8129 LP  0  0  0  0  0  0  0  0  0  0  0  0  # atno 4321 bound_to 2467

> <Gold.Score>
     Score     S(PLP)   S(hbond)     S(cho)   S(metal)  DE(clash)   DE(tors)     intcor
     32.45     -26.64       2.00       0.00       0.00       0.00       0.28       0.37

> <Gold.PLP.Fitness>
32.4476

> <Gold.PLP.PLP>
-26.6438

> <Gold.PLP.part.hbond>
-1.0000

> <Gold.PLP.part.metal>
0.0000

> <Gold.PLP.part.buried>
-2.9347

> <Gold.PLP.part.nonpolar>
-22.6493

> <Gold.PLP.part.repulsive>
0.0000

> <Gold.PLP.ligand.clash>
0.0000

> <Gold.PLP.ligand.torsion>
0.2843

> <Gold.PLP.Chemscore.Hbond>
2.0000

> <Gold.PLP.Chemscore.CHOScore>
0.0000

> <Gold.PLP.Chemscore.Metal>
0.0000

> <Gold.Chemscore.Hbonds>
donor molecule, donor type, donor heavy atom, donor atom, acceptor molecule, acceptor atom, score
      L1  H     9    33       P1  1227  2.00

> <Gold.PLP.Chemscore.Internal.Correction>
0.3723

