#       Name:                EN300-193626_i001
#       Creating user name   fsindt
#       Creation time:       Wed Mar  1 05:10:22 2023


#       File generated by GOLD software.
#

@<TRIPOS>MOLECULE
EN300-193626_i001|amine_4|mol2|10283|dock20
    34    34     1
SMALL
USER_CHARGES


@<TRIPOS>ATOM
      1 C1           1.7011 -22.2978  14.0985 C.3            1 <1>                0.0000
      2 C2           0.9466 -20.9735  14.2315 C.3            1 <1>                0.0000
      3 C3          -0.4982 -21.2497  14.6523 C.3            1 <1>                0.0000
      4 C4           1.6281 -20.1022  15.2885 C.3            1 <1>                0.0000
      5 O5           0.9550 -20.2924  12.9753 O.3            1 <1>                0.0000
      6 C6           0.0495 -19.1891  12.9062 C.3            1 <1>                0.0000
      7 C7          -0.0989 -18.6015  11.4929 C.3            1 <1>                0.0000
      8 C8          -0.1102 -17.2141  12.1560 C.3            1 <1>                0.0000
      9 N9           0.6469 -16.1995  11.4108 N.4            1 <1>                1.0000
     10 C10          0.6813 -17.8473  13.3125 C.3            1 <1>                0.0000
     11 C11          0.2443 -17.3576  14.6946 C.3            1 <1>                0.0000
     12 C12          2.1978 -17.7993  13.1158 C.3            1 <1>                0.0000
     13 H13          1.2156 -22.9186  13.3454 H              1 <1>                0.0000
     14 H14          2.7305 -22.1011  13.7987 H              1 <1>                0.0000
     15 H15          1.6947 -22.8174  15.0568 H              1 <1>                0.0000
     16 H16         -0.5045 -21.7692  15.6105 H              1 <1>                0.0000
     17 H17         -1.0357 -20.3061  14.7471 H              1 <1>                0.0000
     18 H18         -0.9837 -21.8703  13.8992 H              1 <1>                0.0000
     19 H19          2.6574 -19.9054  14.9887 H              1 <1>                0.0000
     20 H20          1.0906 -19.1587  15.3833 H              1 <1>                0.0000
     21 H21          1.6218 -20.6218  16.2468 H              1 <1>                0.0000
     22 H22         -0.9025 -19.3914  13.3971 H              1 <1>                0.0000
     23 H23          0.7682 -18.7736  10.8552 H              1 <1>                0.0000
     24 H24         -1.0401 -18.8616  11.0085 H              1 <1>                0.0000
     25 H25         -1.1059 -16.8744  12.4411 H              1 <1>                0.0000
     26 H26         -0.8422 -17.2758  14.7244 H              1 <1>                0.0000
     27 H27          0.5762 -18.0666  15.4530 H              1 <1>                0.0000
     28 H28          0.6876 -16.3813  14.8911 H              1 <1>                0.0000
     29 H29          2.5664 -16.8062  13.3727 H              1 <1>                0.0000
     30 H30          2.6713 -18.5404  13.7597 H              1 <1>                0.0000
     31 H31          2.4362 -18.0172  12.0747 H              1 <1>                0.0000
     32 H32          0.0321 -15.7289  10.7639 H              1 <1>                0.0000
     33 H33          1.0341 -15.5274  12.0562 H              1 <1>                0.0000
     34 H34          1.3946 -16.6452  10.9006 H              1 <1>                0.0000
@<TRIPOS>BOND
    1    1    2 1     
    2    1   13 1     
    3    1   14 1     
    4    1   15 1     
    5    2    3 1     
    6    2    4 1     
    7    2    5 1     
    8    3   16 1     
    9    3   17 1     
   10    3   18 1     
   11    4   19 1     
   12    4   20 1     
   13    4   21 1     
   14    5    6 1     
   15    6    7 1     
   16    6   10 1     
   17    6   22 1     
   18    7    8 1     
   19    7   23 1     
   20    7   24 1     
   21    8    9 1     
   22    8   10 1     
   23    8   25 1     
   24    9   32 1     
   25    9   33 1     
   26    9   34 1     
   27   10   11 1     
   28   10   12 1     
   29   11   26 1     
   30   11   27 1     
   31   11   28 1     
   32   12   29 1     
   33   12   30 1     
   34   12   31 1     
@<TRIPOS>SUBSTRUCTURE
      1 ****           1
@<TRIPOS>SET
DONOR_HYDROGENS      STATIC     ATOMS    <user>   **** ""
3 32 33 34
ATOM$RED        STATIC     ATOMS    COLORGROUP SYSTEM
3 32 33 34
@<TRIPOS>COMMENT
> <Gold.Version>
2022.2.0

> <Gold.Id.Protein>
3pbl|protein|mol2

> <Gold.Protein.RotatedTorsions>
[ 1303 1298 1297 1294 ] final  121.29 input  179.99 | X-H torsion
[ 2461 2456 2455 2452 ] final   23.22 input   30.03 | X-H torsion
[ 2515 2510 2509 2506 ] final   50.20 input  -89.99 | X-H torsion
[ 3721 3712 3711 3710 ] final  132.41 input -179.91 | X-H torsion
[ 3841 3832 3831 3830 ] final    9.92 input -179.91 | X-H torsion
[ 3767 3762 3761 3758 ] final  -55.67 input  -89.99 | X-H torsion
[ 2472 2467 2466 2463 ] final   85.62 input  -89.97 | X-H torsion

> <Gold.Protein.ActiveResidues>
 VAL82   VAL86   LEU89   PHE106  VAL107  ASP110  VAL111  MET112  CYS114  THR115 
 CYS181  SER182  ILE183  PHE188  VAL189  ILE190  SER192  SER193  SER196  TRP342 
 PHE345  PHE346  HIS349  VAL350  TYR365  THR369  GLY372  TYR373 

> <Gold.Protein.RotatedAtoms>
    4.7533   -9.7528    4.9510 H   0  0  0  0  0  0  0  0  0  0  0  0  # atno 1303 bound_to 1298
    1.4094   -7.9177    7.0888 H   0  0  0  0  0  0  0  0  0  0  0  0  # atno 2461 bound_to 2456
   -5.0404   -4.9003    7.7613 H   0  0  0  0  0  0  0  0  0  0  0  0  # atno 2472 bound_to 2467
    2.2033   -7.4221    5.3025 H   0  0  0  0  0  0  0  0  0  0  0  0  # atno 2515 bound_to 2510
   -3.0969  -17.0730   13.0763 H   0  0  0  0  0  0  0  0  0  0  0  0  # atno 3721 bound_to 3712
   -5.4814  -22.0946   10.7502 H   0  0  0  0  0  0  0  0  0  0  0  0  # atno 3767 bound_to 3762
    1.8312  -20.5960    9.5979 H   0  0  0  0  0  0  0  0  0  0  0  0  # atno 3841 bound_to 3832
    3.3930   -9.8894    4.0580 LP  0  0  0  0  0  0  0  0  0  0  0  0  # atno 4297 bound_to 1298
    4.2156   -8.4789    4.0824 LP  0  0  0  0  0  0  0  0  0  0  0  0  # atno 4298 bound_to 1298
    0.3843   -8.9781    7.7903 LP  0  0  0  0  0  0  0  0  0  0  0  0  # atno 4299 bound_to 2456
    1.9441   -8.9121    8.2689 LP  0  0  0  0  0  0  0  0  0  0  0  0  # atno 4300 bound_to 2456
    2.8346   -8.6525    4.4345 LP  0  0  0  0  0  0  0  0  0  0  0  0  # atno 4301 bound_to 2510
    2.2590   -8.9250    5.9382 LP  0  0  0  0  0  0  0  0  0  0  0  0  # atno 4302 bound_to 2510
   -2.6090  -18.1888   14.1226 LP  0  0  0  0  0  0  0  0  0  0  0  0  # atno 4306 bound_to 3712
   -3.3432  -16.8264   14.6436 LP  0  0  0  0  0  0  0  0  0  0  0  0  # atno 4307 bound_to 3712
    1.9978  -19.6354    8.3229 LP  0  0  0  0  0  0  0  0  0  0  0  0  # atno 4314 bound_to 3832
    3.1162  -20.7784    8.6537 LP  0  0  0  0  0  0  0  0  0  0  0  0  # atno 4315 bound_to 3832
   -4.1358  -22.4803   11.5913 LP  0  0  0  0  0  0  0  0  0  0  0  0  # atno 4318 bound_to 3762
   -4.5104  -23.3000   10.2296 LP  0  0  0  0  0  0  0  0  0  0  0  0  # atno 4319 bound_to 3762
   -3.6346   -5.0399    8.5801 LP  0  0  0  0  0  0  0  0  0  0  0  0  # atno 4320 bound_to 2467
   -5.0420   -5.4533    9.2977 LP  0  0  0  0  0  0  0  0  0  0  0  0  # atno 4321 bound_to 2467

> <Gold.Score>
     Score     S(PLP)   S(hbond)     S(cho)   S(metal)  DE(clash)   DE(tors)     intcor
     32.03     -26.33       2.00       0.00       0.00       0.00       0.34       0.37

> <Gold.PLP.Fitness>
32.0265

> <Gold.PLP.PLP>
-26.3327

> <Gold.PLP.part.hbond>
-1.0000

> <Gold.PLP.part.metal>
0.0000

> <Gold.PLP.part.buried>
-3.1739

> <Gold.PLP.part.nonpolar>
-22.1861

> <Gold.PLP.part.repulsive>
0.0161

> <Gold.PLP.ligand.clash>
0.0000

> <Gold.PLP.ligand.torsion>
0.3384

> <Gold.PLP.Chemscore.Hbond>
2.0000

> <Gold.PLP.Chemscore.CHOScore>
0.0000

> <Gold.PLP.Chemscore.Metal>
0.0000

> <Gold.Chemscore.Hbonds>
donor molecule, donor type, donor heavy atom, donor atom, acceptor molecule, acceptor atom, score
      L1  H     9    34       P1  1227  2.00

> <Gold.PLP.Chemscore.Internal.Correction>
0.3705

