#       Name:                EN300-69205_i002
#       Creating user name   aseyller
#       Creation time:       Fri Apr 21 15:34:44 2023


#       File generated by GOLD software.
#

@<TRIPOS>MOLECULE
EN300-69205_i002|amine_1|mol2|952|dock18
    27    27     1
SMALL
USER_CHARGES


@<TRIPOS>ATOM
      1 C1          30.1713  36.3684  38.3906 C.3            1 <1>                0.0000
      2 C2          31.6153  36.0268  38.0175 C.3            1 <1>                0.0000
      3 C3          31.8275  34.5159  38.1309 C.3            1 <1>                0.0000
      4 O4          31.3548  34.0624  39.4009 O.3            1 <1>                0.0000
      5 N5          31.8793  36.4562  36.6377 N.4            1 <1>                1.0000
      6 C6          33.2858  36.1947  36.3045 C.3            1 <1>                0.0000
      7 C7          33.5565  36.6246  34.8610 C.3            1 <1>                0.0000
      8 N8          33.2586  38.0564  34.7151 N.3            1 <1>                0.0000
      9 C9          31.8601  38.3373  35.0695 C.3            1 <1>                0.0000
     10 C10         31.6034  37.8934  36.5113 C.3            1 <1>                0.0000
     11 H11         30.0201  37.4448  38.3098 H              1 <1>                0.0000
     12 H12         29.4897  35.8539  37.7132 H              1 <1>                0.0000
     13 H13         29.9754  36.0498  39.4143 H              1 <1>                0.0000
     14 H14         32.2969  36.5413  38.6948 H              1 <1>                0.0000
     15 H15         31.2772  34.0111  37.3369 H              1 <1>                0.0000
     16 H16         32.8898  34.2901  38.0368 H              1 <1>                0.0000
     17 H17         33.9299  36.7593  36.9786 H              1 <1>                0.0000
     18 H18         33.4925  35.1299  36.4114 H              1 <1>                0.0000
     19 H19         34.6038  36.4444  34.6183 H              1 <1>                0.0000
     20 H20         32.9223  36.0505  34.1855 H              1 <1>                0.0000
     21 H21         31.6698  39.4067  34.9789 H              1 <1>                0.0000
     22 H22         31.1980  37.7915  34.3974 H              1 <1>                0.0000
     23 H23         30.5629  38.0878  36.7714 H              1 <1>                0.0000
     24 H24         32.2561  38.4492  37.1843 H              1 <1>                0.0000
     25 H25         31.5120  34.6846  40.1241 H              1 <1>                0.0000
     26 H26         33.8911  38.6154  35.2680 H              1 <1>                0.0000
     27 H27         31.2831  35.9428  36.0061 H              1 <1>                0.0000
@<TRIPOS>BOND
    1    1    2 1     
    2    1   11 1     
    3    1   12 1     
    4    1   13 1     
    5    2    3 1     
    6    2    5 1     
    7    2   14 1     
    8    3    4 1     
    9    3   15 1     
   10    3   16 1     
   11    4   25 1     
   12    5    6 1     
   13    5   10 1     
   14    5   27 1     
   15    6    7 1     
   16    6   17 1     
   17    6   18 1     
   18    7    8 1     
   19    7   19 1     
   20    7   20 1     
   21    8    9 1     
   22    8   26 1     
   23    9   10 1     
   24    9   21 1     
   25    9   22 1     
   26   10   23 1     
   27   10   24 1     
@<TRIPOS>SUBSTRUCTURE
      1 ****           1
@<TRIPOS>SET
DONOR_HYDROGENS      STATIC     ATOMS    <user>   **** ""
3 25 27 26
ATOM$RED        STATIC     ATOMS    COLORGROUP SYSTEM
3 25 27 26
@<TRIPOS>COMMENT
> <Gold.Version>
2022.2.0

> <Gold.Id.Protein>
1qkm|1qkm_protein|mol2

> <Gold.Protein.RotatedTorsions>
[  496  491  490  487 ] final  -81.65 input  -89.99 | X-H torsion

> <Gold.Protein.ActiveResidues>
 MET295  LEU298  THR299  LEU301  ALA302  GLU305  TRP335  MET336  LEU339  MET340 
 GLY342  LEU343  ARG346  PHE356  ILE373  ILE376  PHE377  LEU380  LYS471  GLY472 
 MET473  HIS475  LEU476  LEU477  ASN478  MET479  VAL484  VAL487 

> <Gold.Protein.RotatedAtoms>
   36.6809   34.6992   41.1836 H   0  0  0  0  0  0  0  0  0  0  0  0  # atno 496  bound_to 491 

> <Gold.Score>
     Score     S(PLP)   S(hbond)     S(cho)   S(metal)  DE(clash)   DE(tors)     intcor
     32.91     -30.03       1.00       0.00       0.00       0.00       0.06       0.00

> <Gold.PLP.Fitness>
32.9143

> <Gold.PLP.PLP>
-30.0301

> <Gold.PLP.part.hbond>
-2.0000

> <Gold.PLP.part.metal>
0.0000

> <Gold.PLP.part.buried>
-1.1936

> <Gold.PLP.part.nonpolar>
-27.0281

> <Gold.PLP.part.repulsive>
0.0000

> <Gold.PLP.ligand.clash>
0.0000

> <Gold.PLP.ligand.torsion>
0.0579

> <Gold.PLP.Chemscore.Hbond>
1.0000

> <Gold.PLP.Chemscore.CHOScore>
0.0000

> <Gold.PLP.Chemscore.Metal>
0.0000

> <Gold.Chemscore.Hbonds>
donor molecule, donor type, donor heavy atom, donor atom, acceptor molecule, acceptor atom, score
      L1  H     4    25       P1   470  1.00

> <Gold.PLP.Chemscore.Internal.Correction>
0.0001

