#       Name:                EN300-69205_i002
#       Creating user name   aseyller
#       Creation time:       Fri Apr 21 15:34:45 2023


#       File generated by GOLD software.
#

@<TRIPOS>MOLECULE
EN300-69205_i002|amine_1|mol2|952|dock20
    27    27     1
SMALL
USER_CHARGES


@<TRIPOS>ATOM
      1 C1          32.0963  35.1563  38.3099 C.3            1 <1>                0.0000
      2 C2          30.9447  36.0429  37.8313 C.3            1 <1>                0.0000
      3 C3          30.2860  36.7176  39.0362 C.3            1 <1>                0.0000
      4 O4          29.9055  35.7236  39.9897 O.3            1 <1>                0.0000
      5 N5          31.4640  37.0698  36.9183 N.4            1 <1>                1.0000
      6 C6          30.3511  37.8879  36.4183 C.3            1 <1>                0.0000
      7 C7          30.8937  38.9696  35.4818 C.3            1 <1>                0.0000
      8 N8          31.5995  38.3338  34.3603 N.3            1 <1>                0.0000
      9 C9          32.7011  37.4914  34.8470 C.3            1 <1>                0.0000
     10 C10         32.1436  36.4217  35.7888 C.3            1 <1>                0.0000
     11 H11         32.5656  34.6757  37.4515 H              1 <1>                0.0000
     12 H12         32.8327  35.7676  38.8316 H              1 <1>                0.0000
     13 H13         31.7111  34.3944  38.9873 H              1 <1>                0.0000
     14 H14         30.2083  35.4316  37.3096 H              1 <1>                0.0000
     15 H15         30.9913  37.4104  39.4952 H              1 <1>                0.0000
     16 H16         29.4015  37.2638  38.7081 H              1 <1>                0.0000
     17 H17         29.6504  37.2545  35.8744 H              1 <1>                0.0000
     18 H18         29.8397  38.3577  37.2584 H              1 <1>                0.0000
     19 H19         30.0666  39.5675  35.0990 H              1 <1>                0.0000
     20 H20         31.5842  39.6115  36.0289 H              1 <1>                0.0000
     21 H21         33.1925  37.0108  34.0012 H              1 <1>                0.0000
     22 H22         33.4213  38.1089  35.3837 H              1 <1>                0.0000
     23 H23         32.9610  35.8048  36.1621 H              1 <1>                0.0000
     24 H24         31.4336  35.7960  35.2481 H              1 <1>                0.0000
     25 H25         30.5021  35.6571  40.7478 H              1 <1>                0.0000
     26 H26         30.9622  37.8005  33.7878 H              1 <1>                0.0000
     27 H27         32.1186  37.6581  37.4115 H              1 <1>                0.0000
@<TRIPOS>BOND
    1    1    2 1     
    2    1   11 1     
    3    1   12 1     
    4    1   13 1     
    5    2    3 1     
    6    2    5 1     
    7    2   14 1     
    8    3    4 1     
    9    3   15 1     
   10    3   16 1     
   11    4   25 1     
   12    5    6 1     
   13    5   10 1     
   14    5   27 1     
   15    6    7 1     
   16    6   17 1     
   17    6   18 1     
   18    7    8 1     
   19    7   19 1     
   20    7   20 1     
   21    8    9 1     
   22    8   26 1     
   23    9   10 1     
   24    9   21 1     
   25    9   22 1     
   26   10   23 1     
   27   10   24 1     
@<TRIPOS>SUBSTRUCTURE
      1 ****           1
@<TRIPOS>SET
DONOR_HYDROGENS      STATIC     ATOMS    <user>   **** ""
3 25 27 26
ATOM$RED        STATIC     ATOMS    COLORGROUP SYSTEM
3 25 27 26
@<TRIPOS>COMMENT
> <Gold.Version>
2022.2.0

> <Gold.Id.Protein>
1qkm|1qkm_protein|mol2

> <Gold.Protein.RotatedTorsions>
[  496  491  490  487 ] final   85.98 input  -89.99 | X-H torsion

> <Gold.Protein.ActiveResidues>
 MET295  LEU298  THR299  LEU301  ALA302  GLU305  TRP335  MET336  LEU339  MET340 
 GLY342  LEU343  ARG346  PHE356  ILE373  ILE376  PHE377  LEU380  LYS471  GLY472 
 MET473  HIS475  LEU476  LEU477  ASN478  MET479  VAL484  VAL487 

> <Gold.Protein.RotatedAtoms>
   36.7831   33.0503   42.0710 H   0  0  0  0  0  0  0  0  0  0  0  0  # atno 496  bound_to 491 

> <Gold.Score>
     Score     S(PLP)   S(hbond)     S(cho)   S(metal)  DE(clash)   DE(tors)     intcor
     31.75     -28.80       1.00       0.00       0.00       0.00       0.02       0.00

> <Gold.PLP.Fitness>
31.7503

> <Gold.PLP.PLP>
-28.7966

> <Gold.PLP.part.hbond>
-1.0000

> <Gold.PLP.part.metal>
0.0000

> <Gold.PLP.part.buried>
-3.7565

> <Gold.PLP.part.nonpolar>
-23.9275

> <Gold.PLP.part.repulsive>
0.0000

> <Gold.PLP.ligand.clash>
0.0000

> <Gold.PLP.ligand.torsion>
0.0232

> <Gold.PLP.Chemscore.Hbond>
1.0000

> <Gold.PLP.Chemscore.CHOScore>
0.0000

> <Gold.PLP.Chemscore.Metal>
0.0000

> <Gold.Chemscore.Hbonds>
donor molecule, donor type, donor heavy atom, donor atom, acceptor molecule, acceptor atom, score
      L1  H     4    25       P1   470  1.00

> <Gold.PLP.Chemscore.Internal.Correction>
0.0001

