#       Name:                EN300-69205_i002
#       Creating user name   aseyller
#       Creation time:       Fri Apr 21 15:34:39 2023


#       File generated by GOLD software.
#

@<TRIPOS>MOLECULE
EN300-69205_i002|amine_1|mol2|952|dock10
    27    27     1
SMALL
USER_CHARGES


@<TRIPOS>ATOM
      1 C1          27.2182  35.8119  39.1049 C.3            1 <1>                0.0000
      2 C2          28.1578  36.5802  40.0366 C.3            1 <1>                0.0000
      3 C3          28.5024  35.7082  41.2456 C.3            1 <1>                0.0000
      4 O4          29.4040  36.4142  42.1006 O.3            1 <1>                0.0000
      5 N5          29.3897  36.9248  39.3143 N.4            1 <1>                1.0000
      6 C6          29.0463  37.5968  38.0541 C.3            1 <1>                0.0000
      7 C7          30.3296  37.9727  37.3102 C.3            1 <1>                0.0000
      8 N8          31.1101  36.7569  37.0403 N.3            1 <1>                0.0000
      9 C9          31.4401  36.0599  38.2915 C.3            1 <1>                0.0000
     10 C10         30.1475  35.6997  39.0273 C.3            1 <1>                0.0000
     11 H11         26.9728  36.4331  38.2436 H              1 <1>                0.0000
     12 H12         27.7086  34.8991  38.7666 H              1 <1>                0.0000
     13 H13         26.3043  35.5561  39.6408 H              1 <1>                0.0000
     14 H14         27.6675  37.4930  40.3748 H              1 <1>                0.0000
     15 H15         27.5910  35.4718  41.7946 H              1 <1>                0.0000
     16 H16         28.9717  34.7849  40.9058 H              1 <1>                0.0000
     17 H17         28.4508  36.9257  37.4351 H              1 <1>                0.0000
     18 H18         28.4727  38.4986  38.2679 H              1 <1>                0.0000
     19 H19         30.0749  38.4581  36.3680 H              1 <1>                0.0000
     20 H20         30.9189  38.6545  37.9233 H              1 <1>                0.0000
     21 H21         31.9954  35.1498  38.0652 H              1 <1>                0.0000
     22 H22         32.0477  36.7102  38.9207 H              1 <1>                0.0000
     23 H23         30.3904  35.1952  39.9625 H              1 <1>                0.0000
     24 H24         29.5464  35.0384  38.4033 H              1 <1>                0.0000
     25 H25         30.2202  35.9333  42.2943 H              1 <1>                0.0000
     26 H26         30.6195  36.1460  36.4045 H              1 <1>                0.0000
     27 H27         29.9508  37.5417  39.8822 H              1 <1>                0.0000
@<TRIPOS>BOND
    1    1    2 1     
    2    1   11 1     
    3    1   12 1     
    4    1   13 1     
    5    2    3 1     
    6    2    5 1     
    7    2   14 1     
    8    3    4 1     
    9    3   15 1     
   10    3   16 1     
   11    4   25 1     
   12    5    6 1     
   13    5   10 1     
   14    5   27 1     
   15    6    7 1     
   16    6   17 1     
   17    6   18 1     
   18    7    8 1     
   19    7   19 1     
   20    7   20 1     
   21    8    9 1     
   22    8   26 1     
   23    9   10 1     
   24    9   21 1     
   25    9   22 1     
   26   10   23 1     
   27   10   24 1     
@<TRIPOS>SUBSTRUCTURE
      1 ****           1
@<TRIPOS>SET
DONOR_HYDROGENS      STATIC     ATOMS    <user>   **** ""
3 25 27 26
ATOM$RED        STATIC     ATOMS    COLORGROUP SYSTEM
3 25 27 26
@<TRIPOS>COMMENT
> <Gold.Version>
2022.2.0

> <Gold.Id.Protein>
1qkm|1qkm_protein|mol2

> <Gold.Protein.RotatedTorsions>
[  496  491  490  487 ] final  -32.22 input  -89.99 | X-H torsion

> <Gold.Protein.ActiveResidues>
 MET295  LEU298  THR299  LEU301  ALA302  GLU305  TRP335  MET336  LEU339  MET340 
 GLY342  LEU343  ARG346  PHE356  ILE373  ILE376  PHE377  LEU380  LYS471  GLY472 
 MET473  HIS475  LEU476  LEU477  ASN478  MET479  VAL484  VAL487 

> <Gold.Protein.RotatedAtoms>
   36.3244   34.5906   41.8788 H   0  0  0  0  0  0  0  0  0  0  0  0  # atno 496  bound_to 491 

> <Gold.Score>
     Score     S(PLP)   S(hbond)     S(cho)   S(metal)  DE(clash)   DE(tors)     intcor
     33.93     -31.06       1.00       0.00       0.00       0.00       0.07       0.00

> <Gold.PLP.Fitness>
33.9341

> <Gold.PLP.PLP>
-31.0648

> <Gold.PLP.part.hbond>
-1.0000

> <Gold.PLP.part.metal>
0.0000

> <Gold.PLP.part.buried>
-3.3612

> <Gold.PLP.part.nonpolar>
-26.5779

> <Gold.PLP.part.repulsive>
0.0000

> <Gold.PLP.ligand.clash>
0.0000

> <Gold.PLP.ligand.torsion>
0.0654

> <Gold.PLP.Chemscore.Hbond>
1.0000

> <Gold.PLP.Chemscore.CHOScore>
0.0000

> <Gold.PLP.Chemscore.Metal>
0.0000

> <Gold.Chemscore.Hbonds>
donor molecule, donor type, donor heavy atom, donor atom, acceptor molecule, acceptor atom, score
      L1  H     4    25       P1   470  1.00

> <Gold.PLP.Chemscore.Internal.Correction>
0.0001

