#       Name:                EN300-69205_i002
#       Creating user name   aseyller
#       Creation time:       Fri Apr 21 15:34:38 2023


#       File generated by GOLD software.
#

@<TRIPOS>MOLECULE
EN300-69205_i002|amine_1|mol2|952|dock8
    27    27     1
SMALL
USER_CHARGES


@<TRIPOS>ATOM
      1 C1          29.3806  37.6147  37.8337 C.3            1 <1>                0.0000
      2 C2          30.8268  37.1196  37.9016 C.3            1 <1>                0.0000
      3 C3          30.8610  35.7318  38.5448 C.3            1 <1>                0.0000
      4 O4          30.2416  35.7877  39.8314 O.3            1 <1>                0.0000
      5 N5          31.3828  37.0440  36.5441 N.4            1 <1>                1.0000
      6 C6          32.7473  36.5033  36.6037 C.3            1 <1>                0.0000
      7 C7          33.3201  36.4068  35.1879 C.3            1 <1>                0.0000
      8 N8          33.3302  37.7424  34.5745 N.3            1 <1>                0.0000
      9 C9          31.9740  38.3070  34.5307 C.3            1 <1>                0.0000
     10 C10         31.4123  38.3879  35.9519 C.3            1 <1>                0.0000
     11 H11         29.3563  38.6034  37.3754 H              1 <1>                0.0000
     12 H12         28.7874  36.9225  37.2360 H              1 <1>                0.0000
     13 H13         28.9680  37.6708  38.8409 H              1 <1>                0.0000
     14 H14         31.4200  37.8118  38.4993 H              1 <1>                0.0000
     15 H15         30.3230  35.0252  37.9129 H              1 <1>                0.0000
     16 H16         31.8959  35.4071  38.6535 H              1 <1>                0.0000
     17 H17         33.3734  37.1626  37.2048 H              1 <1>                0.0000
     18 H18         32.7256  35.5115  37.0552 H              1 <1>                0.0000
     19 H19         34.3380  36.0195  35.2331 H              1 <1>                0.0000
     20 H20         32.7019  35.7368  34.5904 H              1 <1>                0.0000
     21 H21         32.0099  39.3061  34.0965 H              1 <1>                0.0000
     22 H22         31.3336  37.6684  33.9223 H              1 <1>                0.0000
     23 H23         30.4009  38.7932  35.9203 H              1 <1>                0.0000
     24 H24         32.0453  39.0375  36.5563 H              1 <1>                0.0000
     25 H25         30.6939  35.2664  40.5086 H              1 <1>                0.0000
     26 H26         33.9632  38.3591  35.0615 H              1 <1>                0.0000
     27 H27         30.8062  36.4400  35.9779 H              1 <1>                0.0000
@<TRIPOS>BOND
    1    1    2 1     
    2    1   11 1     
    3    1   12 1     
    4    1   13 1     
    5    2    3 1     
    6    2    5 1     
    7    2   14 1     
    8    3    4 1     
    9    3   15 1     
   10    3   16 1     
   11    4   25 1     
   12    5    6 1     
   13    5   10 1     
   14    5   27 1     
   15    6    7 1     
   16    6   17 1     
   17    6   18 1     
   18    7    8 1     
   19    7   19 1     
   20    7   20 1     
   21    8    9 1     
   22    8   26 1     
   23    9   10 1     
   24    9   21 1     
   25    9   22 1     
   26   10   23 1     
   27   10   24 1     
@<TRIPOS>SUBSTRUCTURE
      1 ****           1
@<TRIPOS>SET
DONOR_HYDROGENS      STATIC     ATOMS    <user>   **** ""
3 25 27 26
ATOM$RED        STATIC     ATOMS    COLORGROUP SYSTEM
3 25 27 26
@<TRIPOS>COMMENT
> <Gold.Version>
2022.2.0

> <Gold.Id.Protein>
1qkm|1qkm_protein|mol2

> <Gold.Protein.RotatedTorsions>
[  496  491  490  487 ] final  -44.49 input  -89.99 | X-H torsion

> <Gold.Protein.ActiveResidues>
 MET295  LEU298  THR299  LEU301  ALA302  GLU305  TRP335  MET336  LEU339  MET340 
 GLY342  LEU343  ARG346  PHE356  ILE373  ILE376  PHE377  LEU380  LYS471  GLY472 
 MET473  HIS475  LEU476  LEU477  ASN478  MET479  VAL484  VAL487 

> <Gold.Protein.RotatedAtoms>
   36.3893   34.6774   41.7088 H   0  0  0  0  0  0  0  0  0  0  0  0  # atno 496  bound_to 491 

> <Gold.Score>
     Score     S(PLP)   S(hbond)     S(cho)   S(metal)  DE(clash)   DE(tors)     intcor
     34.42     -31.45       1.00       0.00       0.00       0.00       0.02       0.00

> <Gold.PLP.Fitness>
34.4155

> <Gold.PLP.PLP>
-31.4469

> <Gold.PLP.part.hbond>
-2.0000

> <Gold.PLP.part.metal>
0.0000

> <Gold.PLP.part.buried>
-3.7872

> <Gold.PLP.part.nonpolar>
-25.8421

> <Gold.PLP.part.repulsive>
0.0000

> <Gold.PLP.ligand.clash>
0.0000

> <Gold.PLP.ligand.torsion>
0.0157

> <Gold.PLP.Chemscore.Hbond>
1.0000

> <Gold.PLP.Chemscore.CHOScore>
0.0000

> <Gold.PLP.Chemscore.Metal>
0.0000

> <Gold.Chemscore.Hbonds>
donor molecule, donor type, donor heavy atom, donor atom, acceptor molecule, acceptor atom, score
      L1  H     4    25       P1   470  1.00

> <Gold.PLP.Chemscore.Internal.Correction>
0.0001

