#       Name:                EN300-69205_i002
#       Creating user name   aseyller
#       Creation time:       Fri Apr 21 15:34:43 2023


#       File generated by GOLD software.
#

@<TRIPOS>MOLECULE
EN300-69205_i002|amine_1|mol2|952|dock16
    27    27     1
SMALL
USER_CHARGES


@<TRIPOS>ATOM
      1 C1          31.3100  38.5077  34.7493 C.3            1 <1>                0.0000
      2 C2          31.4958  37.1394  35.4084 C.3            1 <1>                0.0000
      3 C3          32.9737  36.7465  35.3599 C.3            1 <1>                0.0000
      4 O4          33.4103  36.7018  33.9999 O.3            1 <1>                0.0000
      5 N5          31.0524  37.2055  36.8073 N.4            1 <1>                1.0000
      6 C6          31.2947  35.9115  37.4590 C.3            1 <1>                0.0000
      7 C7          30.8502  35.9857  38.9214 C.3            1 <1>                0.0000
      8 N8          29.4209  36.3229  38.9796 N.3            1 <1>                0.0000
      9 C9          29.1591  37.6043  38.3089 C.3            1 <1>                0.0000
     10 C10         29.6175  37.5168  36.8515 C.3            1 <1>                0.0000
     11 H11         30.2572  38.7876  34.7839 H              1 <1>                0.0000
     12 H12         31.9015  39.2514  35.2833 H              1 <1>                0.0000
     13 H13         31.6391  38.4587  33.7114 H              1 <1>                0.0000
     14 H14         30.9044  36.3957  34.8745 H              1 <1>                0.0000
     15 H15         33.5634  37.4821  35.9069 H              1 <1>                0.0000
     16 H16         33.1038  35.7649  35.8157 H              1 <1>                0.0000
     17 H17         30.7280  35.1346  36.9459 H              1 <1>                0.0000
     18 H18         32.3579  35.6756  37.4139 H              1 <1>                0.0000
     19 H19         31.0162  35.0211  39.4013 H              1 <1>                0.0000
     20 H20         31.4263  36.7533  39.4381 H              1 <1>                0.0000
     21 H21         28.0914  37.8206  38.3419 H              1 <1>                0.0000
     22 H22         29.7073  38.3985  38.8156 H              1 <1>                0.0000
     23 H23         29.4374  38.4709  36.3562 H              1 <1>                0.0000
     24 H24         29.0595  36.7316  36.3416 H              1 <1>                0.0000
     25 H25         32.9678  36.0274  33.4667 H              1 <1>                0.0000
     26 H26         28.8588  35.5852  38.5819 H              1 <1>                0.0000
     27 H27         31.5676  37.9265  37.2895 H              1 <1>                0.0000
@<TRIPOS>BOND
    1    1    2 1     
    2    1   11 1     
    3    1   12 1     
    4    1   13 1     
    5    2    3 1     
    6    2    5 1     
    7    2   14 1     
    8    3    4 1     
    9    3   15 1     
   10    3   16 1     
   11    4   25 1     
   12    5    6 1     
   13    5   10 1     
   14    5   27 1     
   15    6    7 1     
   16    6   17 1     
   17    6   18 1     
   18    7    8 1     
   19    7   19 1     
   20    7   20 1     
   21    8    9 1     
   22    8   26 1     
   23    9   10 1     
   24    9   21 1     
   25    9   22 1     
   26   10   23 1     
   27   10   24 1     
@<TRIPOS>SUBSTRUCTURE
      1 ****           1
@<TRIPOS>SET
DONOR_HYDROGENS      STATIC     ATOMS    <user>   **** ""
3 25 27 26
ATOM$RED        STATIC     ATOMS    COLORGROUP SYSTEM
3 25 27 26
@<TRIPOS>COMMENT
> <Gold.Version>
2022.2.0

> <Gold.Id.Protein>
1qkm|1qkm_protein|mol2

> <Gold.Protein.RotatedTorsions>
[  496  491  490  487 ] final  152.32 input  -89.99 | X-H torsion

> <Gold.Protein.ActiveResidues>
 MET295  LEU298  THR299  LEU301  ALA302  GLU305  TRP335  MET336  LEU339  MET340 
 GLY342  LEU343  ARG346  PHE356  ILE373  ILE376  PHE377  LEU380  LYS471  GLY472 
 MET473  HIS475  LEU476  LEU477  ASN478  MET479  VAL484  VAL487 

> <Gold.Protein.RotatedAtoms>
   37.2719   33.1258   41.1652 H   0  0  0  0  0  0  0  0  0  0  0  0  # atno 496  bound_to 491 

> <Gold.Score>
     Score     S(PLP)   S(hbond)     S(cho)   S(metal)  DE(clash)   DE(tors)     intcor
     32.92     -29.94       1.00       0.00       0.00       0.00       0.01       0.00

> <Gold.PLP.Fitness>
32.9249

> <Gold.PLP.PLP>
-29.9430

> <Gold.PLP.part.hbond>
-2.7915

> <Gold.PLP.part.metal>
0.0000

> <Gold.PLP.part.buried>
-3.8767

> <Gold.PLP.part.nonpolar>
-23.3231

> <Gold.PLP.part.repulsive>
0.0000

> <Gold.PLP.ligand.clash>
0.0000

> <Gold.PLP.ligand.torsion>
0.0091

> <Gold.PLP.Chemscore.Hbond>
1.0000

> <Gold.PLP.Chemscore.CHOScore>
0.0000

> <Gold.PLP.Chemscore.Metal>
0.0000

> <Gold.Chemscore.Hbonds>
donor molecule, donor type, donor heavy atom, donor atom, acceptor molecule, acceptor atom, score
      L1  H     4    25       P1  3187  1.00

> <Gold.PLP.Chemscore.Internal.Correction>
0.0001

