#       Name:                EN300-69205_i002
#       Creating user name   aseyller
#       Creation time:       Fri Apr 21 15:34:34 2023


#       File generated by GOLD software.
#

@<TRIPOS>MOLECULE
EN300-69205_i002|amine_1|mol2|952|dock2
    27    27     1
SMALL
USER_CHARGES


@<TRIPOS>ATOM
      1 C1          28.0265  36.3434  38.8749 C.3            1 <1>                0.0000
      2 C2          29.0380  36.3244  40.0227 C.3            1 <1>                0.0000
      3 C3          28.4792  35.4958  41.1812 C.3            1 <1>                0.0000
      4 O4          27.2354  36.0541  41.6096 O.3            1 <1>                0.0000
      5 N5          30.2967  35.7276  39.5564 N.4            1 <1>                1.0000
      6 C6          30.9077  36.6015  38.5462 C.3            1 <1>                0.0000
      7 C7          32.2283  35.9895  38.0737 C.3            1 <1>                0.0000
      8 N8          31.9726  34.6586  37.5050 N.3            1 <1>                0.0000
      9 C9          31.3379  33.7800  38.4976 C.3            1 <1>                0.0000
     10 C10         30.0246  34.4102  38.9665 C.3            1 <1>                0.0000
     11 H11         28.4246  36.9336  38.0496 H              1 <1>                0.0000
     12 H12         27.8418  35.3238  38.5365 H              1 <1>                0.0000
     13 H13         27.0925  36.7861  39.2209 H              1 <1>                0.0000
     14 H14         29.2226  37.3439  40.3611 H              1 <1>                0.0000
     15 H15         28.3221  34.4690  40.8509 H              1 <1>                0.0000
     16 H16         29.1870  35.5065  42.0101 H              1 <1>                0.0000
     17 H17         30.2311  36.7047  37.6979 H              1 <1>                0.0000
     18 H18         31.0971  37.5828  38.9814 H              1 <1>                0.0000
     19 H19         32.6747  36.6304  37.3133 H              1 <1>                0.0000
     20 H20         32.9102  35.8988  38.9193 H              1 <1>                0.0000
     21 H21         31.1346  32.8089  38.0465 H              1 <1>                0.0000
     22 H22         32.0051  33.6528  39.3502 H              1 <1>                0.0000
     23 H23         29.5593  33.7669  39.7134 H              1 <1>                0.0000
     24 H24         29.3525  34.5246  38.1161 H              1 <1>                0.0000
     25 H25         26.7621  35.5112  42.2548 H              1 <1>                0.0000
     26 H26         31.4114  34.7245  36.6690 H              1 <1>                0.0000
     27 H27         30.9281  35.6226  40.3363 H              1 <1>                0.0000
@<TRIPOS>BOND
    1    1    2 1     
    2    1   11 1     
    3    1   12 1     
    4    1   13 1     
    5    2    3 1     
    6    2    5 1     
    7    2   14 1     
    8    3    4 1     
    9    3   15 1     
   10    3   16 1     
   11    4   25 1     
   12    5    6 1     
   13    5   10 1     
   14    5   27 1     
   15    6    7 1     
   16    6   17 1     
   17    6   18 1     
   18    7    8 1     
   19    7   19 1     
   20    7   20 1     
   21    8    9 1     
   22    8   26 1     
   23    9   10 1     
   24    9   21 1     
   25    9   22 1     
   26   10   23 1     
   27   10   24 1     
@<TRIPOS>SUBSTRUCTURE
      1 ****           1
@<TRIPOS>SET
DONOR_HYDROGENS      STATIC     ATOMS    <user>   **** ""
3 25 27 26
ATOM$RED        STATIC     ATOMS    COLORGROUP SYSTEM
3 25 27 26
@<TRIPOS>COMMENT
> <Gold.Version>
2022.2.0

> <Gold.Id.Protein>
1qkm|1qkm_protein|mol2

> <Gold.Protein.RotatedTorsions>
[  496  491  490  487 ] final    8.92 input  -89.99 | X-H torsion

> <Gold.Protein.ActiveResidues>
 MET295  LEU298  THR299  LEU301  ALA302  GLU305  TRP335  MET336  LEU339  MET340 
 GLY342  LEU343  ARG346  PHE356  ILE373  ILE376  PHE377  LEU380  LYS471  GLY472 
 MET473  HIS475  LEU476  LEU477  ASN478  MET479  VAL484  VAL487 

> <Gold.Protein.RotatedAtoms>
   36.2710   34.0825   42.3011 H   0  0  0  0  0  0  0  0  0  0  0  0  # atno 496  bound_to 491 

> <Gold.Score>
     Score     S(PLP)   S(hbond)     S(cho)   S(metal)  DE(clash)   DE(tors)     intcor
     37.87     -31.95       2.00       0.00       0.00       0.00       0.04       0.00

> <Gold.PLP.Fitness>
37.8667

> <Gold.PLP.PLP>
-31.9457

> <Gold.PLP.part.hbond>
-2.0000

> <Gold.PLP.part.metal>
0.0000

> <Gold.PLP.part.buried>
-4.7119

> <Gold.PLP.part.nonpolar>
-25.3716

> <Gold.PLP.part.repulsive>
0.0460

> <Gold.PLP.ligand.clash>
0.0000

> <Gold.PLP.ligand.torsion>
0.0395

> <Gold.PLP.Chemscore.Hbond>
2.0000

> <Gold.PLP.Chemscore.CHOScore>
0.0000

> <Gold.PLP.Chemscore.Metal>
0.0000

> <Gold.Chemscore.Hbonds>
donor molecule, donor type, donor heavy atom, donor atom, acceptor molecule, acceptor atom, score
      L1  H     4    25       P1   582  1.00
      L1  H     5    27       P1   470  1.00

> <Gold.PLP.Chemscore.Internal.Correction>
0.0001

