#       Name:                EN300-69205_i002
#       Creating user name   aseyller
#       Creation time:       Fri Apr 21 15:34:40 2023


#       File generated by GOLD software.
#

@<TRIPOS>MOLECULE
EN300-69205_i002|amine_1|mol2|952|dock11
    27    27     1
SMALL
USER_CHARGES


@<TRIPOS>ATOM
      1 C1          28.7758  37.1802  37.3064 C.3            1 <1>                0.0000
      2 C2          29.0972  36.2755  38.4978 C.3            1 <1>                0.0000
      3 C3          30.5945  36.3479  38.8038 C.3            1 <1>                0.0000
      4 O4          31.0685  35.0512  39.1726 O.3            1 <1>                0.0000
      5 N5          28.3354  36.7224  39.6716 N.4            1 <1>                1.0000
      6 C6          28.7492  35.9462  40.8480 C.3            1 <1>                0.0000
      7 C7          27.9692  36.4242  42.0747 C.3            1 <1>                0.0000
      8 N8          26.5296  36.2519  41.8343 N.3            1 <1>                0.0000
      9 C9          26.1054  37.0035  40.6446 C.3            1 <1>                0.0000
     10 C10         26.9007  36.5206  39.4296 C.3            1 <1>                0.0000
     11 H11         27.7091  37.1287  37.0885 H              1 <1>                0.0000
     12 H12         29.0483  38.2079  37.5468 H              1 <1>                0.0000
     13 H13         29.3411  36.8487  36.4355 H              1 <1>                0.0000
     14 H14         28.8246  35.2479  38.2574 H              1 <1>                0.0000
     15 H15         31.1299  36.6923  37.9190 H              1 <1>                0.0000
     16 H16         30.7643  37.0440  39.6252 H              1 <1>                0.0000
     17 H17         28.5444  34.8895  40.6764 H              1 <1>                0.0000
     18 H18         29.8165  36.0865  41.0186 H              1 <1>                0.0000
     19 H19         28.2654  35.8384  42.9449 H              1 <1>                0.0000
     20 H20         28.1844  37.4776  42.2547 H              1 <1>                0.0000
     21 H21         25.0418  36.8402  40.4714 H              1 <1>                0.0000
     22 H22         26.2898  38.0663  40.8010 H              1 <1>                0.0000
     23 H23         26.5977  37.0868  38.5488 H              1 <1>                0.0000
     24 H24         26.7054  35.4610  39.2653 H              1 <1>                0.0000
     25 H25         31.3177  34.9737  40.1037 H              1 <1>                0.0000
     26 H26         26.2917  35.2750  41.7487 H              1 <1>                0.0000
     27 H27         28.5140  37.7019  39.8352 H              1 <1>                0.0000
@<TRIPOS>BOND
    1    1    2 1     
    2    1   11 1     
    3    1   12 1     
    4    1   13 1     
    5    2    3 1     
    6    2    5 1     
    7    2   14 1     
    8    3    4 1     
    9    3   15 1     
   10    3   16 1     
   11    4   25 1     
   12    5    6 1     
   13    5   10 1     
   14    5   27 1     
   15    6    7 1     
   16    6   17 1     
   17    6   18 1     
   18    7    8 1     
   19    7   19 1     
   20    7   20 1     
   21    8    9 1     
   22    8   26 1     
   23    9   10 1     
   24    9   21 1     
   25    9   22 1     
   26   10   23 1     
   27   10   24 1     
@<TRIPOS>SUBSTRUCTURE
      1 ****           1
@<TRIPOS>SET
DONOR_HYDROGENS      STATIC     ATOMS    <user>   **** ""
3 25 27 26
ATOM$RED        STATIC     ATOMS    COLORGROUP SYSTEM
3 25 27 26
@<TRIPOS>COMMENT
> <Gold.Version>
2022.2.0

> <Gold.Id.Protein>
1qkm|1qkm_protein|mol2

> <Gold.Protein.RotatedTorsions>
[  496  491  490  487 ] final  -81.60 input  -89.99 | X-H torsion

> <Gold.Protein.ActiveResidues>
 MET295  LEU298  THR299  LEU301  ALA302  GLU305  TRP335  MET336  LEU339  MET340 
 GLY342  LEU343  ARG346  PHE356  ILE373  ILE376  PHE377  LEU380  LYS471  GLY472 
 MET473  HIS475  LEU476  LEU477  ASN478  MET479  VAL484  VAL487 

> <Gold.Protein.RotatedAtoms>
   36.6804   34.6995   41.1843 H   0  0  0  0  0  0  0  0  0  0  0  0  # atno 496  bound_to 491 

> <Gold.Score>
     Score     S(PLP)   S(hbond)     S(cho)   S(metal)  DE(clash)   DE(tors)     intcor
     34.33     -32.29       1.09       0.00       0.00       0.07       0.57       0.00

> <Gold.PLP.Fitness>
34.3346

> <Gold.PLP.PLP>
-32.2906

> <Gold.PLP.part.hbond>
-2.0000

> <Gold.PLP.part.metal>
0.0000

> <Gold.PLP.part.buried>
-3.5044

> <Gold.PLP.part.nonpolar>
-27.1766

> <Gold.PLP.part.repulsive>
0.0000

> <Gold.PLP.ligand.clash>
0.0713

> <Gold.PLP.ligand.torsion>
0.5703

> <Gold.PLP.Chemscore.Hbond>
1.0853

> <Gold.PLP.Chemscore.CHOScore>
0.0000

> <Gold.PLP.Chemscore.Metal>
0.0000

> <Gold.Chemscore.Hbonds>
donor molecule, donor type, donor heavy atom, donor atom, acceptor molecule, acceptor atom, score
      L1  H     4    25       P1   470  1.00
      L1  H     8    26       P1   582  0.09

> <Gold.PLP.Chemscore.Internal.Correction>
0.0001

