#       Name:                EN300-69205_i002
#       Creating user name   aseyller
#       Creation time:       Fri Apr 21 15:34:35 2023


#       File generated by GOLD software.
#

@<TRIPOS>MOLECULE
EN300-69205_i002|amine_1|mol2|952|dock4
    27    27     1
SMALL
USER_CHARGES


@<TRIPOS>ATOM
      1 C1          31.9961  35.4724  38.5784 C.3            1 <1>                0.0000
      2 C2          31.0604  36.2398  37.6421 C.3            1 <1>                0.0000
      3 C3          30.2640  37.2682  38.4476 C.3            1 <1>                0.0000
      4 O4          29.5506  36.6054  39.4935 O.3            1 <1>                0.0000
      5 N5          31.8526  36.9292  36.6151 N.4            1 <1>                1.0000
      6 C6          30.9517  37.5164  35.6145 C.3            1 <1>                0.0000
      7 C7          31.7757  38.2507  34.5545 C.3            1 <1>                0.0000
      8 N8          32.6982  37.3037  33.9124 N.3            1 <1>                0.0000
      9 C9          33.5901  36.6889  34.9058 C.3            1 <1>                0.0000
     10 C10         32.7511  35.9675  35.9628 C.3            1 <1>                0.0000
     11 H11         32.5635  34.7397  38.0045 H              1 <1>                0.0000
     12 H12         32.6832  36.1701  39.0571 H              1 <1>                0.0000
     13 H13         31.4083  34.9609  39.3405 H              1 <1>                0.0000
     14 H14         30.3732  35.5420  37.1634 H              1 <1>                0.0000
     15 H15         30.9473  37.9989  38.8803 H              1 <1>                0.0000
     16 H16         29.5574  37.7759  37.7909 H              1 <1>                0.0000
     17 H17         30.3710  36.7255  35.1398 H              1 <1>                0.0000
     18 H18         30.2768  38.2201  36.1019 H              1 <1>                0.0000
     19 H19         31.1082  38.6740  33.8038 H              1 <1>                0.0000
     20 H20         32.3461  39.0505  35.0269 H              1 <1>                0.0000
     21 H21         34.2464  35.9728  34.4114 H              1 <1>                0.0000
     22 H22         34.1904  37.4630  35.3839 H              1 <1>                0.0000
     23 H23         33.4103  35.5228  36.7084 H              1 <1>                0.0000
     24 H24         32.1613  35.1846  35.4863 H              1 <1>                0.0000
     25 H25         30.1183  36.2321  40.1815 H              1 <1>                0.0000
     26 H26         32.1922  36.5998  33.3960 H              1 <1>                0.0000
     27 H27         32.3985  37.6600  37.0460 H              1 <1>                0.0000
@<TRIPOS>BOND
    1    1    2 1     
    2    1   11 1     
    3    1   12 1     
    4    1   13 1     
    5    2    3 1     
    6    2    5 1     
    7    2   14 1     
    8    3    4 1     
    9    3   15 1     
   10    3   16 1     
   11    4   25 1     
   12    5    6 1     
   13    5   10 1     
   14    5   27 1     
   15    6    7 1     
   16    6   17 1     
   17    6   18 1     
   18    7    8 1     
   19    7   19 1     
   20    7   20 1     
   21    8    9 1     
   22    8   26 1     
   23    9   10 1     
   24    9   21 1     
   25    9   22 1     
   26   10   23 1     
   27   10   24 1     
@<TRIPOS>SUBSTRUCTURE
      1 ****           1
@<TRIPOS>SET
DONOR_HYDROGENS      STATIC     ATOMS    <user>   **** ""
3 25 27 26
ATOM$RED        STATIC     ATOMS    COLORGROUP SYSTEM
3 25 27 26
@<TRIPOS>COMMENT
> <Gold.Version>
2022.2.0

> <Gold.Id.Protein>
1qkm|1qkm_protein|mol2

> <Gold.Protein.RotatedTorsions>
[  496  491  490  487 ] final   56.99 input  -89.99 | X-H torsion

> <Gold.Protein.ActiveResidues>
 MET295  LEU298  THR299  LEU301  ALA302  GLU305  TRP335  MET336  LEU339  MET340 
 GLY342  LEU343  ARG346  PHE356  ILE373  ILE376  PHE377  LEU380  LYS471  GLY472 
 MET473  HIS475  LEU476  LEU477  ASN478  MET479  VAL484  VAL487 

> <Gold.Protein.RotatedAtoms>
   36.5269   33.3585   42.3208 H   0  0  0  0  0  0  0  0  0  0  0  0  # atno 496  bound_to 491 

> <Gold.Score>
     Score     S(PLP)   S(hbond)     S(cho)   S(metal)  DE(clash)   DE(tors)     intcor
     34.60     -31.75       0.99       0.00       0.00       0.00       0.06       0.00

> <Gold.PLP.Fitness>
34.5972

> <Gold.PLP.PLP>
-31.7467

> <Gold.PLP.part.hbond>
-1.4919

> <Gold.PLP.part.metal>
0.0000

> <Gold.PLP.part.buried>
-4.0869

> <Gold.PLP.part.nonpolar>
-26.4056

> <Gold.PLP.part.repulsive>
0.0000

> <Gold.PLP.ligand.clash>
0.0000

> <Gold.PLP.ligand.torsion>
0.0617

> <Gold.PLP.Chemscore.Hbond>
0.9913

> <Gold.PLP.Chemscore.CHOScore>
0.0000

> <Gold.PLP.Chemscore.Metal>
0.0000

> <Gold.Chemscore.Hbonds>
donor molecule, donor type, donor heavy atom, donor atom, acceptor molecule, acceptor atom, score
      L1  H     8    26       P1  3187  0.99

> <Gold.PLP.Chemscore.Internal.Correction>
0.0001

