#       Name:                EN300-69205_i002
#       Creating user name   aseyller
#       Creation time:       Fri Apr 21 15:34:36 2023


#       File generated by GOLD software.
#

@<TRIPOS>MOLECULE
EN300-69205_i002|amine_1|mol2|952|dock5
    27    27     1
SMALL
USER_CHARGES


@<TRIPOS>ATOM
      1 C1          28.5836  37.0773  38.1262 C.3            1 <1>                0.0000
      2 C2          29.4486  36.9720  39.3839 C.3            1 <1>                0.0000
      3 C3          28.6280  36.3527  40.5169 C.3            1 <1>                0.0000
      4 O4          29.4006  36.3515  41.7191 O.3            1 <1>                0.0000
      5 N5          30.6163  36.1254  39.1057 N.4            1 <1>                1.0000
      6 C6          31.3532  36.6700  37.9576 C.3            1 <1>                0.0000
      7 C7          32.5801  35.7989  37.6791 C.3            1 <1>                0.0000
      8 N8          32.1469  34.4231  37.3971 N.3            1 <1>                0.0000
      9 C9          31.3862  33.8732  38.5280 C.3            1 <1>                0.0000
     10 C10         30.1690  34.7602  38.7995 C.3            1 <1>                0.0000
     11 H11         29.1683  37.5185  37.3190 H              1 <1>                0.0000
     12 H12         28.2492  36.0827  37.8310 H              1 <1>                0.0000
     13 H13         27.7172  37.7054  38.3326 H              1 <1>                0.0000
     14 H14         29.7830  37.9666  39.6791 H              1 <1>                0.0000
     15 H15         27.7201  36.9364  40.6690 H              1 <1>                0.0000
     16 H16         28.3618  35.3286  40.2550 H              1 <1>                0.0000
     17 H17         30.7059  36.6770  37.0806 H              1 <1>                0.0000
     18 H18         31.6732  37.6877  38.1811 H              1 <1>                0.0000
     19 H19         33.1190  36.1943  36.8180 H              1 <1>                0.0000
     20 H20         33.2343  35.8027  38.5510 H              1 <1>                0.0000
     21 H21         31.0539  32.8637  38.2863 H              1 <1>                0.0000
     22 H22         32.0207  33.8453  39.4139 H              1 <1>                0.0000
     23 H23         29.6112  34.3620  39.6471 H              1 <1>                0.0000
     24 H24         29.5279  34.7769  37.9182 H              1 <1>                0.0000
     25 H25         30.1037  35.6879  41.7341 H              1 <1>                0.0000
     26 H26         31.6087  34.3811  36.5446 H              1 <1>                0.0000
     27 H27         31.2192  36.1079  39.9145 H              1 <1>                0.0000
@<TRIPOS>BOND
    1    1    2 1     
    2    1   11 1     
    3    1   12 1     
    4    1   13 1     
    5    2    3 1     
    6    2    5 1     
    7    2   14 1     
    8    3    4 1     
    9    3   15 1     
   10    3   16 1     
   11    4   25 1     
   12    5    6 1     
   13    5   10 1     
   14    5   27 1     
   15    6    7 1     
   16    6   17 1     
   17    6   18 1     
   18    7    8 1     
   19    7   19 1     
   20    7   20 1     
   21    8    9 1     
   22    8   26 1     
   23    9   10 1     
   24    9   21 1     
   25    9   22 1     
   26   10   23 1     
   27   10   24 1     
@<TRIPOS>SUBSTRUCTURE
      1 ****           1
@<TRIPOS>SET
DONOR_HYDROGENS      STATIC     ATOMS    <user>   **** ""
3 25 27 26
ATOM$RED        STATIC     ATOMS    COLORGROUP SYSTEM
3 25 27 26
@<TRIPOS>COMMENT
> <Gold.Version>
2022.2.0

> <Gold.Id.Protein>
1qkm|1qkm_protein|mol2

> <Gold.Protein.RotatedTorsions>
[  496  491  490  487 ] final   54.95 input  -89.99 | X-H torsion

> <Gold.Protein.ActiveResidues>
 MET295  LEU298  THR299  LEU301  ALA302  GLU305  TRP335  MET336  LEU339  MET340 
 GLY342  LEU343  ARG346  PHE356  ILE373  ILE376  PHE377  LEU380  LYS471  GLY472 
 MET473  HIS475  LEU476  LEU477  ASN478  MET479  VAL484  VAL487 

> <Gold.Protein.RotatedAtoms>
   36.5107   33.3858   42.3315 H   0  0  0  0  0  0  0  0  0  0  0  0  # atno 496  bound_to 491 

> <Gold.Score>
     Score     S(PLP)   S(hbond)     S(cho)   S(metal)  DE(clash)   DE(tors)     intcor
     35.65     -32.70       1.00       0.00       0.00       0.00       0.03       0.00

> <Gold.PLP.Fitness>
35.6492

> <Gold.PLP.PLP>
-32.7006

> <Gold.PLP.part.hbond>
-1.0000

> <Gold.PLP.part.metal>
0.0000

> <Gold.PLP.part.buried>
-4.5142

> <Gold.PLP.part.nonpolar>
-27.6809

> <Gold.PLP.part.repulsive>
0.0295

> <Gold.PLP.ligand.clash>
0.0000

> <Gold.PLP.ligand.torsion>
0.0257

> <Gold.PLP.Chemscore.Hbond>
1.0000

> <Gold.PLP.Chemscore.CHOScore>
0.0000

> <Gold.PLP.Chemscore.Metal>
0.0000

> <Gold.Chemscore.Hbonds>
donor molecule, donor type, donor heavy atom, donor atom, acceptor molecule, acceptor atom, score
      L1  H     4    25       P1   470  1.00

> <Gold.PLP.Chemscore.Internal.Correction>
0.0001

