#       Name:                EN300-69205_i002
#       Creating user name   aseyller
#       Creation time:       Fri Apr 21 15:34:42 2023


#       File generated by GOLD software.
#

@<TRIPOS>MOLECULE
EN300-69205_i002|amine_1|mol2|952|dock14
    27    27     1
SMALL
USER_CHARGES


@<TRIPOS>ATOM
      1 C1          31.5064  38.4944  35.6392 C.3            1 <1>                0.0000
      2 C2          31.8452  37.0095  35.7864 C.3            1 <1>                0.0000
      3 C3          33.2882  36.7688  35.3386 C.3            1 <1>                0.0000
      4 O4          33.3396  36.7033  33.9120 O.3            1 <1>                0.0000
      5 N5          31.6956  36.6102  37.1920 N.4            1 <1>                1.0000
      6 C6          31.9492  35.1691  37.3209 C.3            1 <1>                0.0000
      7 C7          31.8119  34.7560  38.7880 C.3            1 <1>                0.0000
      8 N8          30.4573  35.0766  39.2595 N.3            1 <1>                0.0000
      9 C9          30.1799  36.5125  39.1134 C.3            1 <1>                0.0000
     10 C10         30.3306  36.9111  37.6436 C.3            1 <1>                0.0000
     11 H11         30.4784  38.6658  35.9582 H              1 <1>                0.0000
     12 H12         32.1822  39.0842  36.2584 H              1 <1>                0.0000
     13 H13         31.6175  38.7907  34.5962 H              1 <1>                0.0000
     14 H14         31.1694  36.4197  35.1671 H              1 <1>                0.0000
     15 H15         33.9182  37.5870  35.6877 H              1 <1>                0.0000
     16 H16         33.6471  35.8292  35.7587 H              1 <1>                0.0000
     17 H17         31.2268  34.6178  36.7191 H              1 <1>                0.0000
     18 H18         32.9578  34.9452  36.9733 H              1 <1>                0.0000
     19 H19         31.9855  33.6840  38.8817 H              1 <1>                0.0000
     20 H20         32.5435  35.2971  39.3881 H              1 <1>                0.0000
     21 H21         29.1628  36.7220  39.4445 H              1 <1>                0.0000
     22 H22         30.8846  37.0825  39.7189 H              1 <1>                0.0000
     23 H23         30.1392  37.9787  37.5353 H              1 <1>                0.0000
     24 H24         29.6165  36.3508  37.0402 H              1 <1>                0.0000
     25 H25         34.1327  37.1018  33.5283 H              1 <1>                0.0000
     26 H26         29.7657  34.5236  38.7757 H              1 <1>                0.0000
     27 H27         32.3569  37.1199  37.7585 H              1 <1>                0.0000
@<TRIPOS>BOND
    1    1    2 1     
    2    1   11 1     
    3    1   12 1     
    4    1   13 1     
    5    2    3 1     
    6    2    5 1     
    7    2   14 1     
    8    3    4 1     
    9    3   15 1     
   10    3   16 1     
   11    4   25 1     
   12    5    6 1     
   13    5   10 1     
   14    5   27 1     
   15    6    7 1     
   16    6   17 1     
   17    6   18 1     
   18    7    8 1     
   19    7   19 1     
   20    7   20 1     
   21    8    9 1     
   22    8   26 1     
   23    9   10 1     
   24    9   21 1     
   25    9   22 1     
   26   10   23 1     
   27   10   24 1     
@<TRIPOS>SUBSTRUCTURE
      1 ****           1
@<TRIPOS>SET
DONOR_HYDROGENS      STATIC     ATOMS    <user>   **** ""
3 25 27 26
ATOM$RED        STATIC     ATOMS    COLORGROUP SYSTEM
3 25 27 26
@<TRIPOS>COMMENT
> <Gold.Version>
2022.2.0

> <Gold.Id.Protein>
1qkm|1qkm_protein|mol2

> <Gold.Protein.RotatedTorsions>
[  496  491  490  487 ] final  108.18 input  -89.99 | X-H torsion

> <Gold.Protein.ActiveResidues>
 MET295  LEU298  THR299  LEU301  ALA302  GLU305  TRP335  MET336  LEU339  MET340 
 GLY342  LEU343  ARG346  PHE356  ILE373  ILE376  PHE377  LEU380  LYS471  GLY472 
 MET473  HIS475  LEU476  LEU477  ASN478  MET479  VAL484  VAL487 

> <Gold.Protein.RotatedAtoms>
   36.9838   32.9454   41.7871 H   0  0  0  0  0  0  0  0  0  0  0  0  # atno 496  bound_to 491 

> <Gold.Score>
     Score     S(PLP)   S(hbond)     S(cho)   S(metal)  DE(clash)   DE(tors)     intcor
     33.63     -31.05       0.99       0.00       0.00       0.00       0.20       0.00

> <Gold.PLP.Fitness>
33.6258

> <Gold.PLP.PLP>
-31.0468

> <Gold.PLP.part.hbond>
-3.5656

> <Gold.PLP.part.metal>
0.0000

> <Gold.PLP.part.buried>
-3.6395

> <Gold.PLP.part.nonpolar>
-24.2421

> <Gold.PLP.part.repulsive>
0.0000

> <Gold.PLP.ligand.clash>
0.0000

> <Gold.PLP.ligand.torsion>
0.1974

> <Gold.PLP.Chemscore.Hbond>
0.9913

> <Gold.PLP.Chemscore.CHOScore>
0.0000

> <Gold.PLP.Chemscore.Metal>
0.0000

> <Gold.Chemscore.Hbonds>
donor molecule, donor type, donor heavy atom, donor atom, acceptor molecule, acceptor atom, score
      L1  H     4    25       P1  3229  0.99

> <Gold.PLP.Chemscore.Internal.Correction>
0.0001

