#       Name:                EN300-69205_i002
#       Creating user name   aseyller
#       Creation time:       Fri Apr 21 15:34:41 2023


#       File generated by GOLD software.
#

@<TRIPOS>MOLECULE
EN300-69205_i002|amine_1|mol2|952|dock13
    27    27     1
SMALL
USER_CHARGES


@<TRIPOS>ATOM
      1 C1          29.3521  36.9992  40.6886 C.3            1 <1>                0.0000
      2 C2          29.2222  35.6603  39.9596 C.3            1 <1>                0.0000
      3 C3          28.2346  35.8046  38.8000 C.3            1 <1>                0.0000
      4 O4          26.9748  36.2567  39.3008 O.3            1 <1>                0.0000
      5 N5          30.5349  35.2577  39.4374 N.4            1 <1>                1.0000
      6 C6          31.0043  36.2580  38.4696 C.3            1 <1>                0.0000
      7 C7          32.3801  35.8486  37.9394 C.3            1 <1>                0.0000
      8 N8          32.2824  34.5297  37.2983 N.3            1 <1>                0.0000
      9 C9          31.7897  33.5226  38.2486 C.3            1 <1>                0.0000
     10 C10         30.4187  33.9511  38.7763 C.3            1 <1>                0.0000
     11 H11         30.0557  36.8963  41.5147 H              1 <1>                0.0000
     12 H12         29.7150  37.7571  39.9944 H              1 <1>                0.0000
     13 H13         28.3781  37.2980  41.0760 H              1 <1>                0.0000
     14 H14         28.8593  34.9024  40.6538 H              1 <1>                0.0000
     15 H15         28.6208  36.5278  38.0818 H              1 <1>                0.0000
     16 H16         28.1057  34.8394  38.3102 H              1 <1>                0.0000
     17 H17         30.2993  36.3204  37.6407 H              1 <1>                0.0000
     18 H18         31.0775  37.2296  38.9582 H              1 <1>                0.0000
     19 H19         32.7221  36.5831  37.2102 H              1 <1>                0.0000
     20 H20         33.0887  35.7994  38.7663 H              1 <1>                0.0000
     21 H21         31.7010  32.5601  37.7450 H              1 <1>                0.0000
     22 H22         32.4885  33.4351  39.0806 H              1 <1>                0.0000
     23 H23         30.0579  33.2125  39.4921 H              1 <1>                0.0000
     24 H24         29.7168  34.0253  37.9458 H              1 <1>                0.0000
     25 H25         26.2114  35.8873  38.8363 H              1 <1>                0.0000
     26 H26         31.6969  34.5692  36.4774 H              1 <1>                0.0000
     27 H27         31.1936  35.1915  40.1988 H              1 <1>                0.0000
@<TRIPOS>BOND
    1    1    2 1     
    2    1   11 1     
    3    1   12 1     
    4    1   13 1     
    5    2    3 1     
    6    2    5 1     
    7    2   14 1     
    8    3    4 1     
    9    3   15 1     
   10    3   16 1     
   11    4   25 1     
   12    5    6 1     
   13    5   10 1     
   14    5   27 1     
   15    6    7 1     
   16    6   17 1     
   17    6   18 1     
   18    7    8 1     
   19    7   19 1     
   20    7   20 1     
   21    8    9 1     
   22    8   26 1     
   23    9   10 1     
   24    9   21 1     
   25    9   22 1     
   26   10   23 1     
   27   10   24 1     
@<TRIPOS>SUBSTRUCTURE
      1 ****           1
@<TRIPOS>SET
DONOR_HYDROGENS      STATIC     ATOMS    <user>   **** ""
3 25 27 26
ATOM$RED        STATIC     ATOMS    COLORGROUP SYSTEM
3 25 27 26
@<TRIPOS>COMMENT
> <Gold.Version>
2022.2.0

> <Gold.Id.Protein>
1qkm|1qkm_protein|mol2

> <Gold.Protein.RotatedTorsions>
[  496  491  490  487 ] final  -57.53 input  -89.99 | X-H torsion

> <Gold.Protein.ActiveResidues>
 MET295  LEU298  THR299  LEU301  ALA302  GLU305  TRP335  MET336  LEU339  MET340 
 GLY342  LEU343  ARG346  PHE356  ILE373  ILE376  PHE377  LEU380  LYS471  GLY472 
 MET473  HIS475  LEU476  LEU477  ASN478  MET479  VAL484  VAL487 

> <Gold.Protein.RotatedAtoms>
   36.4782   34.7277   41.5204 H   0  0  0  0  0  0  0  0  0  0  0  0  # atno 496  bound_to 491 

> <Gold.Score>
     Score     S(PLP)   S(hbond)     S(cho)   S(metal)  DE(clash)   DE(tors)     intcor
     34.77     -31.78       1.00       0.00       0.00       0.00       0.01       0.00

> <Gold.PLP.Fitness>
34.7650

> <Gold.PLP.PLP>
-31.7789

> <Gold.PLP.part.hbond>
-1.0000

> <Gold.PLP.part.metal>
0.0000

> <Gold.PLP.part.buried>
-4.4129

> <Gold.PLP.part.nonpolar>
-26.7916

> <Gold.PLP.part.repulsive>
0.0627

> <Gold.PLP.ligand.clash>
0.0000

> <Gold.PLP.ligand.torsion>
0.0070

> <Gold.PLP.Chemscore.Hbond>
1.0000

> <Gold.PLP.Chemscore.CHOScore>
0.0000

> <Gold.PLP.Chemscore.Metal>
0.0000

> <Gold.Chemscore.Hbonds>
donor molecule, donor type, donor heavy atom, donor atom, acceptor molecule, acceptor atom, score
      L1  H     5    27       P1   470  1.00

> <Gold.PLP.Chemscore.Internal.Correction>
0.0001

