#       Name:                EN300-69205_i002
#       Creating user name   aseyller
#       Creation time:       Fri Apr 21 15:34:40 2023


#       File generated by GOLD software.
#

@<TRIPOS>MOLECULE
EN300-69205_i002|amine_1|mol2|952|dock12
    27    27     1
SMALL
USER_CHARGES


@<TRIPOS>ATOM
      1 C1          27.9328  36.1150  41.4607 C.3            1 <1>                0.0000
      2 C2          27.4111  36.2651  40.0302 C.3            1 <1>                0.0000
      3 C3          26.0787  37.0169  40.0496 C.3            1 <1>                0.0000
      4 O4          25.2028  36.4096  41.0015 O.3            1 <1>                0.0000
      5 N5          28.3862  37.0174  39.2297 N.4            1 <1>                1.0000
      6 C6          27.8189  37.2976  37.9041 C.3            1 <1>                0.0000
      7 C7          28.8272  38.0975  37.0763 C.3            1 <1>                0.0000
      8 N8          30.0701  37.3246  36.9428 N.3            1 <1>                0.0000
      9 C9          30.6366  37.0150  38.2632 C.3            1 <1>                0.0000
     10 C10         29.6134  36.2239  39.0812 C.3            1 <1>                0.0000
     11 H11         28.8820  35.5794  41.4469 H              1 <1>                0.0000
     12 H12         28.0789  37.1020  41.8995 H              1 <1>                0.0000
     13 H13         27.2093  35.5568  42.0548 H              1 <1>                0.0000
     14 H14         27.2650  35.2780  39.5915 H              1 <1>                0.0000
     15 H15         26.2523  38.0566  40.3272 H              1 <1>                0.0000
     16 H16         25.6241  36.9762  39.0597 H              1 <1>                0.0000
     17 H17         27.5971  36.3581  37.3978 H              1 <1>                0.0000
     18 H18         26.9014  37.8752  38.0164 H              1 <1>                0.0000
     19 H19         28.4123  38.2928  36.0874 H              1 <1>                0.0000
     20 H20         29.0388  39.0431  37.5755 H              1 <1>                0.0000
     21 H21         31.5418  36.4205  38.1402 H              1 <1>                0.0000
     22 H22         30.8781  37.9427  38.7819 H              1 <1>                0.0000
     23 H23         30.0263  36.0056  40.0661 H              1 <1>                0.0000
     24 H24         29.3825  35.2900  38.5688 H              1 <1>                0.0000
     25 H25         24.3414  36.1599  40.6400 H              1 <1>                0.0000
     26 H26         29.9165  36.4823  36.4087 H              1 <1>                0.0000
     27 H27         28.6025  37.8869  39.6935 H              1 <1>                0.0000
@<TRIPOS>BOND
    1    1    2 1     
    2    1   11 1     
    3    1   12 1     
    4    1   13 1     
    5    2    3 1     
    6    2    5 1     
    7    2   14 1     
    8    3    4 1     
    9    3   15 1     
   10    3   16 1     
   11    4   25 1     
   12    5    6 1     
   13    5   10 1     
   14    5   27 1     
   15    6    7 1     
   16    6   17 1     
   17    6   18 1     
   18    7    8 1     
   19    7   19 1     
   20    7   20 1     
   21    8    9 1     
   22    8   26 1     
   23    9   10 1     
   24    9   21 1     
   25    9   22 1     
   26   10   23 1     
   27   10   24 1     
@<TRIPOS>SUBSTRUCTURE
      1 ****           1
@<TRIPOS>SET
DONOR_HYDROGENS      STATIC     ATOMS    <user>   **** ""
3 25 27 26
ATOM$RED        STATIC     ATOMS    COLORGROUP SYSTEM
3 25 27 26
@<TRIPOS>COMMENT
> <Gold.Version>
2022.2.0

> <Gold.Id.Protein>
1qkm|1qkm_protein|mol2

> <Gold.Protein.RotatedTorsions>
[  496  491  490  487 ] final -155.48 input  -89.99 | X-H torsion

> <Gold.Protein.ActiveResidues>
 MET295  LEU298  THR299  LEU301  ALA302  GLU305  TRP335  MET336  LEU339  MET340 
 GLY342  LEU343  ARG346  PHE356  ILE373  ILE376  PHE377  LEU380  LYS471  GLY472 
 MET473  HIS475  LEU476  LEU477  ASN478  MET479  VAL484  VAL487 

> <Gold.Protein.RotatedAtoms>
   37.2571   33.8342   40.7330 H   0  0  0  0  0  0  0  0  0  0  0  0  # atno 496  bound_to 491 

> <Gold.Score>
     Score     S(PLP)   S(hbond)     S(cho)   S(metal)  DE(clash)   DE(tors)     intcor
     34.23     -31.41       1.00       0.00       0.00       0.00       0.09       0.00

> <Gold.PLP.Fitness>
34.2262

> <Gold.PLP.PLP>
-31.4080

> <Gold.PLP.part.hbond>
-1.0000

> <Gold.PLP.part.metal>
0.0000

> <Gold.PLP.part.buried>
-3.3810

> <Gold.PLP.part.nonpolar>
-27.4118

> <Gold.PLP.part.repulsive>
0.0000

> <Gold.PLP.ligand.clash>
0.0000

> <Gold.PLP.ligand.torsion>
0.0909

> <Gold.PLP.Chemscore.Hbond>
1.0000

> <Gold.PLP.Chemscore.CHOScore>
0.0000

> <Gold.PLP.Chemscore.Metal>
0.0000

> <Gold.Chemscore.Hbonds>
donor molecule, donor type, donor heavy atom, donor atom, acceptor molecule, acceptor atom, score
      L1  H     4    25       P1  1131  1.00

> <Gold.PLP.Chemscore.Internal.Correction>
0.0001

