#       Name:                EN300-69205_i002
#       Creating user name   aseyller
#       Creation time:       Fri Apr 21 15:34:45 2023


#       File generated by GOLD software.
#

@<TRIPOS>MOLECULE
EN300-69205_i002|amine_1|mol2|952|dock19
    27    27     1
SMALL
USER_CHARGES


@<TRIPOS>ATOM
      1 C1          29.0976  37.9172  37.9782 C.3            1 <1>                0.0000
      2 C2          29.3248  36.4334  38.2745 C.3            1 <1>                0.0000
      3 C3          30.8176  36.1800  38.4941 C.3            1 <1>                0.0000
      4 O4          31.5485  36.6144  37.3455 O.3            1 <1>                0.0000
      5 N5          28.5810  36.0559  39.4836 N.4            1 <1>                1.0000
      6 C6          27.1803  36.4770  39.3479 C.3            1 <1>                0.0000
      7 C7          26.4008  36.0673  40.5994 C.3            1 <1>                0.0000
      8 N8          27.0079  36.6985  41.7797 N.3            1 <1>                0.0000
      9 C9          28.4178  36.3058  41.9146 C.3            1 <1>                0.0000
     10 C10         29.1807  36.7136  40.6522 C.3            1 <1>                0.0000
     11 H11         28.0341  38.0977  37.8218 H              1 <1>                0.0000
     12 H12         29.4473  38.5136  38.8209 H              1 <1>                0.0000
     13 H13         29.6495  38.1973  37.0811 H              1 <1>                0.0000
     14 H14         28.9751  35.8370  37.4317 H              1 <1>                0.0000
     15 H15         31.1550  36.7336  39.3703 H              1 <1>                0.0000
     16 H16         30.9861  35.1144  38.6504 H              1 <1>                0.0000
     17 H17         27.1362  37.5597  39.2305 H              1 <1>                0.0000
     18 H18         26.7404  35.9985  38.4729 H              1 <1>                0.0000
     19 H19         25.3647  36.3928  40.5053 H              1 <1>                0.0000
     20 H20         26.4333  34.9833  40.7094 H              1 <1>                0.0000
     21 H21         28.8532  36.8053  42.7799 H              1 <1>                0.0000
     22 H22         28.4835  35.2258  42.0463 H              1 <1>                0.0000
     23 H23         30.2236  36.4104  40.7442 H              1 <1>                0.0000
     24 H24         29.1262  37.7951  40.5282 H              1 <1>                0.0000
     25 H25         31.0141  37.0928  36.6970 H              1 <1>                0.0000
     26 H26         26.9142  37.7024  41.7412 H              1 <1>                0.0000
     27 H27         28.6210  35.0550  39.6041 H              1 <1>                0.0000
@<TRIPOS>BOND
    1    1    2 1     
    2    1   11 1     
    3    1   12 1     
    4    1   13 1     
    5    2    3 1     
    6    2    5 1     
    7    2   14 1     
    8    3    4 1     
    9    3   15 1     
   10    3   16 1     
   11    4   25 1     
   12    5    6 1     
   13    5   10 1     
   14    5   27 1     
   15    6    7 1     
   16    6   17 1     
   17    6   18 1     
   18    7    8 1     
   19    7   19 1     
   20    7   20 1     
   21    8    9 1     
   22    8   26 1     
   23    9   10 1     
   24    9   21 1     
   25    9   22 1     
   26   10   23 1     
   27   10   24 1     
@<TRIPOS>SUBSTRUCTURE
      1 ****           1
@<TRIPOS>SET
DONOR_HYDROGENS      STATIC     ATOMS    <user>   **** ""
3 25 27 26
ATOM$RED        STATIC     ATOMS    COLORGROUP SYSTEM
3 25 27 26
@<TRIPOS>COMMENT
> <Gold.Version>
2022.2.0

> <Gold.Id.Protein>
1qkm|1qkm_protein|mol2

> <Gold.Protein.RotatedTorsions>
[  496  491  490  487 ] final  170.33 input  -89.99 | X-H torsion

> <Gold.Protein.ActiveResidues>
 MET295  LEU298  THR299  LEU301  ALA302  GLU305  TRP335  MET336  LEU339  MET340 
 GLY342  LEU343  ARG346  PHE356  ILE373  ILE376  PHE377  LEU380  LYS471  GLY472 
 MET473  HIS475  LEU476  LEU477  ASN478  MET479  VAL484  VAL487 

> <Gold.Protein.RotatedAtoms>
   37.3156   33.3300   40.9565 H   0  0  0  0  0  0  0  0  0  0  0  0  # atno 496  bound_to 491 

> <Gold.Score>
     Score     S(PLP)   S(hbond)     S(cho)   S(metal)  DE(clash)   DE(tors)     intcor
     32.15     -32.29       0.00       0.00       0.00       0.00       0.07       0.00

> <Gold.PLP.Fitness>
32.1455

> <Gold.PLP.PLP>
-32.2874

> <Gold.PLP.part.hbond>
-0.8320

> <Gold.PLP.part.metal>
0.0000

> <Gold.PLP.part.buried>
-3.5000

> <Gold.PLP.part.nonpolar>
-28.1215

> <Gold.PLP.part.repulsive>
0.0000

> <Gold.PLP.ligand.clash>
0.0000

> <Gold.PLP.ligand.torsion>
0.0710

> <Gold.PLP.Chemscore.Hbond>
0.0000

> <Gold.PLP.Chemscore.CHOScore>
0.0000

> <Gold.PLP.Chemscore.Metal>
0.0000

> <Gold.PLP.Chemscore.Internal.Correction>
0.0001

