#       Name:                EN300-69205_i002
#       Creating user name   aseyller
#       Creation time:       Fri Apr 21 15:34:42 2023


#       File generated by GOLD software.
#

@<TRIPOS>MOLECULE
EN300-69205_i002|amine_1|mol2|952|dock15
    27    27     1
SMALL
USER_CHARGES


@<TRIPOS>ATOM
      1 C1          26.7330  36.1050  38.5068 C.3            1 <1>                0.0000
      2 C2          27.5103  36.9442  39.5230 C.3            1 <1>                0.0000
      3 C3          27.6838  36.1462  40.8169 C.3            1 <1>                0.0000
      4 O4          26.3997  35.7873  41.3310 O.3            1 <1>                0.0000
      5 N5          28.8307  37.2794  38.9736 N.4            1 <1>                1.0000
      6 C6          28.6680  37.8946  37.6498 C.3            1 <1>                0.0000
      7 C7          30.0423  38.2611  37.0851 C.3            1 <1>                0.0000
      8 N8          30.8661  37.0483  36.9828 N.3            1 <1>                0.0000
      9 C9          31.0171  36.4074  38.2968 C.3            1 <1>                0.0000
     10 C10         29.6347  36.0561  38.8515 C.3            1 <1>                0.0000
     11 H11         26.6094  36.6735  37.5850 H              1 <1>                0.0000
     12 H12         27.2829  35.1876  38.2969 H              1 <1>                0.0000
     13 H13         25.7533  35.8563  38.9144 H              1 <1>                0.0000
     14 H14         26.9604  37.8616  39.7329 H              1 <1>                0.0000
     15 H15         28.2588  35.2431  40.6124 H              1 <1>                0.0000
     16 H16         28.2120  36.7548  41.5510 H              1 <1>                0.0000
     17 H17         28.1760  37.1898  36.9796 H              1 <1>                0.0000
     18 H18         28.0603  38.7950  37.7399 H              1 <1>                0.0000
     19 H19         29.9228  38.7042  36.0963 H              1 <1>                0.0000
     20 H20         30.5289  38.9764  37.7481 H              1 <1>                0.0000
     21 H21         31.6087  35.4980  38.1921 H              1 <1>                0.0000
     22 H22         31.5198  37.0922  38.9798 H              1 <1>                0.0000
     23 H23         29.7438  35.5936  39.8324 H              1 <1>                0.0000
     24 H24         29.1378  35.3608  38.1751 H              1 <1>                0.0000
     25 H25         26.4268  35.1041  42.0148 H              1 <1>                0.0000
     26 H26         30.4796  36.4045  36.3087 H              1 <1>                0.0000
     27 H27         29.2968  37.9275  39.5906 H              1 <1>                0.0000
@<TRIPOS>BOND
    1    1    2 1     
    2    1   11 1     
    3    1   12 1     
    4    1   13 1     
    5    2    3 1     
    6    2    5 1     
    7    2   14 1     
    8    3    4 1     
    9    3   15 1     
   10    3   16 1     
   11    4   25 1     
   12    5    6 1     
   13    5   10 1     
   14    5   27 1     
   15    6    7 1     
   16    6   17 1     
   17    6   18 1     
   18    7    8 1     
   19    7   19 1     
   20    7   20 1     
   21    8    9 1     
   22    8   26 1     
   23    9   10 1     
   24    9   21 1     
   25    9   22 1     
   26   10   23 1     
   27   10   24 1     
@<TRIPOS>SUBSTRUCTURE
      1 ****           1
@<TRIPOS>SET
DONOR_HYDROGENS      STATIC     ATOMS    <user>   **** ""
3 25 27 26
ATOM$RED        STATIC     ATOMS    COLORGROUP SYSTEM
3 25 27 26
@<TRIPOS>COMMENT
> <Gold.Version>
2022.2.0

> <Gold.Id.Protein>
1qkm|1qkm_protein|mol2

> <Gold.Protein.RotatedTorsions>
[  496  491  490  487 ] final    7.07 input  -89.99 | X-H torsion

> <Gold.Protein.ActiveResidues>
 MET295  LEU298  THR299  LEU301  ALA302  GLU305  TRP335  MET336  LEU339  MET340 
 GLY342  LEU343  ARG346  PHE356  ILE373  ILE376  PHE377  LEU380  LYS471  GLY472 
 MET473  HIS475  LEU476  LEU477  ASN478  MET479  VAL484  VAL487 

> <Gold.Protein.RotatedAtoms>
   36.2676   34.1104   42.2890 H   0  0  0  0  0  0  0  0  0  0  0  0  # atno 496  bound_to 491 

> <Gold.Score>
     Score     S(PLP)   S(hbond)     S(cho)   S(metal)  DE(clash)   DE(tors)     intcor
     31.87     -28.97       1.00       0.00       0.00       0.00       0.05       0.00

> <Gold.PLP.Fitness>
31.8670

> <Gold.PLP.PLP>
-28.9713

> <Gold.PLP.part.hbond>
-1.0000

> <Gold.PLP.part.metal>
0.0000

> <Gold.PLP.part.buried>
-2.6998

> <Gold.PLP.part.nonpolar>
-24.9771

> <Gold.PLP.part.repulsive>
0.0000

> <Gold.PLP.ligand.clash>
0.0000

> <Gold.PLP.ligand.torsion>
0.0522

> <Gold.PLP.Chemscore.Hbond>
1.0000

> <Gold.PLP.Chemscore.CHOScore>
0.0000

> <Gold.PLP.Chemscore.Metal>
0.0000

> <Gold.Chemscore.Hbonds>
donor molecule, donor type, donor heavy atom, donor atom, acceptor molecule, acceptor atom, score
      L1  H     4    25       P1   582  1.00

> <Gold.PLP.Chemscore.Internal.Correction>
0.0001

