#       Name:                EN300-69205_i002
#       Creating user name   aseyller
#       Creation time:       Fri Apr 21 15:34:37 2023


#       File generated by GOLD software.
#

@<TRIPOS>MOLECULE
EN300-69205_i002|amine_1|mol2|952|dock7
    27    27     1
SMALL
USER_CHARGES


@<TRIPOS>ATOM
      1 C1          27.8764  38.2655  37.3007 C.3            1 <1>                0.0000
      2 C2          28.5667  37.1170  38.0393 C.3            1 <1>                0.0000
      3 C3          30.0689  37.3946  38.1236 C.3            1 <1>                0.0000
      4 O4          30.5809  37.6472  36.8135 O.3            1 <1>                0.0000
      5 N5          28.0128  37.0036  39.3951 N.4            1 <1>                1.0000
      6 C6          28.7516  35.9762  40.1410 C.3            1 <1>                0.0000
      7 C7          28.1871  35.8709  41.5595 C.3            1 <1>                0.0000
      8 N8          26.7612  35.5213  41.4917 N.3            1 <1>                0.0000
      9 C9          26.0127  36.5282  40.7262 C.3            1 <1>                0.0000
     10 C10         26.5950  36.6281  39.3146 C.3            1 <1>                0.0000
     11 H11         26.8062  38.0677  37.2407 H              1 <1>                0.0000
     12 H12         28.0439  39.1974  37.8408 H              1 <1>                0.0000
     13 H13         28.2874  38.3497  36.2947 H              1 <1>                0.0000
     14 H14         28.3991  36.1851  37.4992 H              1 <1>                0.0000
     15 H15         30.2424  38.2654  38.7557 H              1 <1>                0.0000
     16 H16         30.5750  36.5288  38.5508 H              1 <1>                0.0000
     17 H17         28.6477  35.0157  39.6364 H              1 <1>                0.0000
     18 H18         29.8056  36.2495  40.1887 H              1 <1>                0.0000
     19 H19         28.7254  35.0983  42.1086 H              1 <1>                0.0000
     20 H20         28.3032  36.8275  42.0691 H              1 <1>                0.0000
     21 H21         24.9646  36.2351  40.6674 H              1 <1>                0.0000
     22 H22         26.0929  37.4956  41.2221 H              1 <1>                0.0000
     23 H23         26.0503  37.3846  38.7496 H              1 <1>                0.0000
     24 H24         26.5022  35.6642  38.8143 H              1 <1>                0.0000
     25 H25         31.5197  37.4397  36.7114 H              1 <1>                0.0000
     26 H26         26.6330  34.6003  41.0999 H              1 <1>                0.0000
     27 H27         28.0991  37.8902  39.8686 H              1 <1>                0.0000
@<TRIPOS>BOND
    1    1    2 1     
    2    1   11 1     
    3    1   12 1     
    4    1   13 1     
    5    2    3 1     
    6    2    5 1     
    7    2   14 1     
    8    3    4 1     
    9    3   15 1     
   10    3   16 1     
   11    4   25 1     
   12    5    6 1     
   13    5   10 1     
   14    5   27 1     
   15    6    7 1     
   16    6   17 1     
   17    6   18 1     
   18    7    8 1     
   19    7   19 1     
   20    7   20 1     
   21    8    9 1     
   22    8   26 1     
   23    9   10 1     
   24    9   21 1     
   25    9   22 1     
   26   10   23 1     
   27   10   24 1     
@<TRIPOS>SUBSTRUCTURE
      1 ****           1
@<TRIPOS>SET
DONOR_HYDROGENS      STATIC     ATOMS    <user>   **** ""
3 25 27 26
ATOM$RED        STATIC     ATOMS    COLORGROUP SYSTEM
3 25 27 26
@<TRIPOS>COMMENT
> <Gold.Version>
2022.2.0

> <Gold.Id.Protein>
1qkm|1qkm_protein|mol2

> <Gold.Protein.RotatedTorsions>
[  496  491  490  487 ] final   -3.41 input  -89.99 | X-H torsion

> <Gold.Protein.ActiveResidues>
 MET295  LEU298  THR299  LEU301  ALA302  GLU305  TRP335  MET336  LEU339  MET340 
 GLY342  LEU343  ARG346  PHE356  ILE373  ILE376  PHE377  LEU380  LYS471  GLY472 
 MET473  HIS475  LEU476  LEU477  ASN478  MET479  VAL484  VAL487 

> <Gold.Protein.RotatedAtoms>
   36.2588   34.2615   42.2067 H   0  0  0  0  0  0  0  0  0  0  0  0  # atno 496  bound_to 491 

> <Gold.Score>
     Score     S(PLP)   S(hbond)     S(cho)   S(metal)  DE(clash)   DE(tors)     intcor
     32.99     -33.08       0.00       0.00       0.00       0.00       0.04       0.00

> <Gold.PLP.Fitness>
32.9920

> <Gold.PLP.PLP>
-33.0754

> <Gold.PLP.part.hbond>
-1.0000

> <Gold.PLP.part.metal>
0.0000

> <Gold.PLP.part.buried>
-3.1717

> <Gold.PLP.part.nonpolar>
-29.1760

> <Gold.PLP.part.repulsive>
0.0000

> <Gold.PLP.ligand.clash>
0.0000

> <Gold.PLP.ligand.torsion>
0.0417

> <Gold.PLP.Chemscore.Hbond>
0.0000

> <Gold.PLP.Chemscore.CHOScore>
0.0000

> <Gold.PLP.Chemscore.Metal>
0.0000

> <Gold.PLP.Chemscore.Internal.Correction>
0.0001

