#       Name:                EN300-69205_i002
#       Creating user name   aseyller
#       Creation time:       Fri Apr 21 15:34:44 2023


#       File generated by GOLD software.
#

@<TRIPOS>MOLECULE
EN300-69205_i002|amine_1|mol2|952|dock17
    27    27     1
SMALL
USER_CHARGES


@<TRIPOS>ATOM
      1 C1          28.5050  36.3153  41.5946 C.3            1 <1>                0.0000
      2 C2          27.8486  35.6448  40.3860 C.3            1 <1>                0.0000
      3 C3          26.4638  36.2529  40.1552 C.3            1 <1>                0.0000
      4 O4          25.6956  36.1580  41.3564 O.3            1 <1>                0.0000
      5 N5          28.6818  35.8583  39.1951 N.4            1 <1>                1.0000
      6 C6          29.9998  35.2444  39.4037 C.3            1 <1>                0.0000
      7 C7          30.8617  35.4502  38.1561 C.3            1 <1>                0.0000
      8 N8          31.0080  36.8895  37.8971 N.3            1 <1>                0.0000
      9 C9          29.6947  37.5226  37.7110 C.3            1 <1>                0.0000
     10 C10         28.8424  37.2997  38.9623 C.3            1 <1>                0.0000
     11 H11         29.4916  35.8822  41.7589 H              1 <1>                0.0000
     12 H12         28.6042  37.3846  41.4073 H              1 <1>                0.0000
     13 H13         27.8868  36.1571  42.4781 H              1 <1>                0.0000
     14 H14         27.7494  34.5756  40.5732 H              1 <1>                0.0000
     15 H15         26.5693  37.3004  39.8731 H              1 <1>                0.0000
     16 H16         25.9575  35.7108  39.3564 H              1 <1>                0.0000
     17 H17         30.4855  35.7093  40.2616 H              1 <1>                0.0000
     18 H18         29.8782  34.1772  39.5893 H              1 <1>                0.0000
     19 H19         31.8449  35.0077  38.3162 H              1 <1>                0.0000
     20 H20         30.3829  34.9736  37.3006 H              1 <1>                0.0000
     21 H21         29.8264  38.5919  37.5464 H              1 <1>                0.0000
     22 H22         29.1967  37.0801  36.8482 H              1 <1>                0.0000
     23 H23         27.8628  37.7562  38.8207 H              1 <1>                0.0000
     24 H24         29.3341  37.7541  39.8224 H              1 <1>                0.0000
     25 H25         26.0766  35.5683  42.0214 H              1 <1>                0.0000
     26 H26         31.5246  37.3395  38.6379 H              1 <1>                0.0000
     27 H27         28.2372  35.4361  38.3938 H              1 <1>                0.0000
@<TRIPOS>BOND
    1    1    2 1     
    2    1   11 1     
    3    1   12 1     
    4    1   13 1     
    5    2    3 1     
    6    2    5 1     
    7    2   14 1     
    8    3    4 1     
    9    3   15 1     
   10    3   16 1     
   11    4   25 1     
   12    5    6 1     
   13    5   10 1     
   14    5   27 1     
   15    6    7 1     
   16    6   17 1     
   17    6   18 1     
   18    7    8 1     
   19    7   19 1     
   20    7   20 1     
   21    8    9 1     
   22    8   26 1     
   23    9   10 1     
   24    9   21 1     
   25    9   22 1     
   26   10   23 1     
   27   10   24 1     
@<TRIPOS>SUBSTRUCTURE
      1 ****           1
@<TRIPOS>SET
DONOR_HYDROGENS      STATIC     ATOMS    <user>   **** ""
3 25 27 26
ATOM$RED        STATIC     ATOMS    COLORGROUP SYSTEM
3 25 27 26
@<TRIPOS>COMMENT
> <Gold.Version>
2022.2.0

> <Gold.Id.Protein>
1qkm|1qkm_protein|mol2

> <Gold.Protein.RotatedTorsions>
[  496  491  490  487 ] final   53.81 input  -89.99 | X-H torsion

> <Gold.Protein.ActiveResidues>
 MET295  LEU298  THR299  LEU301  ALA302  GLU305  TRP335  MET336  LEU339  MET340 
 GLY342  LEU343  ARG346  PHE356  ILE373  ILE376  PHE377  LEU380  LYS471  GLY472 
 MET473  HIS475  LEU476  LEU477  ASN478  MET479  VAL484  VAL487 

> <Gold.Protein.RotatedAtoms>
   36.5018   33.4014   42.3371 H   0  0  0  0  0  0  0  0  0  0  0  0  # atno 496  bound_to 491 

> <Gold.Score>
     Score     S(PLP)   S(hbond)     S(cho)   S(metal)  DE(clash)   DE(tors)     intcor
     33.78     -30.81       1.00       0.00       0.00       0.00       0.02       0.00

> <Gold.PLP.Fitness>
33.7767

> <Gold.PLP.PLP>
-30.8105

> <Gold.PLP.part.hbond>
-1.0000

> <Gold.PLP.part.metal>
0.0000

> <Gold.PLP.part.buried>
-3.6197

> <Gold.PLP.part.nonpolar>
-26.1473

> <Gold.PLP.part.repulsive>
0.0000

> <Gold.PLP.ligand.clash>
0.0000

> <Gold.PLP.ligand.torsion>
0.0169

> <Gold.PLP.Chemscore.Hbond>
1.0000

> <Gold.PLP.Chemscore.CHOScore>
0.0000

> <Gold.PLP.Chemscore.Metal>
0.0000

> <Gold.Chemscore.Hbonds>
donor molecule, donor type, donor heavy atom, donor atom, acceptor molecule, acceptor atom, score
      L1  H     4    25       P1   582  1.00

> <Gold.PLP.Chemscore.Internal.Correction>
0.0001

