#       Name:                EN300-69205_i002
#       Creating user name   aseyller
#       Creation time:       Fri Apr 21 15:34:34 2023


#       File generated by GOLD software.
#

@<TRIPOS>MOLECULE
EN300-69205_i002|amine_1|mol2|952|dock1
    27    27     1
SMALL
USER_CHARGES


@<TRIPOS>ATOM
      1 C1          27.5100  35.3726  41.9447 C.3            1 <1>                0.0000
      2 C2          26.8046  35.9327  40.7079 C.3            1 <1>                0.0000
      3 C3          25.6605  36.8497  41.1448 C.3            1 <1>                0.0000
      4 O4          24.6452  36.0732  41.7838 O.3            1 <1>                0.0000
      5 N5          27.7646  36.6978  39.9011 N.4            1 <1>                1.0000
      6 C6          27.1547  37.0405  38.6095 C.3            1 <1>                0.0000
      7 C7          28.1476  37.8537  37.7762 C.3            1 <1>                0.0000
      8 N8          29.3692  37.0638  37.5664 N.3            1 <1>                0.0000
      9 C9          29.9775  36.6920  38.8517 C.3            1 <1>                0.0000
     10 C10         28.9694  35.8883  39.6761 C.3            1 <1>                0.0000
     11 H11         28.3251  34.7193  41.6334 H              1 <1>                0.0000
     12 H12         27.9097  36.1947  42.5384 H              1 <1>                0.0000
     13 H13         26.7978  34.8049  42.5434 H              1 <1>                0.0000
     14 H14         26.4049  35.1106  40.1142 H              1 <1>                0.0000
     15 H15         26.0397  37.5966  41.8423 H              1 <1>                0.0000
     16 H16         25.2407  37.3484  40.2712 H              1 <1>                0.0000
     17 H17         26.8958  36.1260  38.0759 H              1 <1>                0.0000
     18 H18         26.2536  37.6301  38.7784 H              1 <1>                0.0000
     19 H19         27.7007  38.0955  36.8118 H              1 <1>                0.0000
     20 H20         28.3962  38.7748  38.3033 H              1 <1>                0.0000
     21 H21         30.8655  36.0862  38.6719 H              1 <1>                0.0000
     22 H22         30.2562  37.5939  39.3965 H              1 <1>                0.0000
     23 H23         29.4138  35.6237  40.6357 H              1 <1>                0.0000
     24 H24         28.7013  34.9798  39.1371 H              1 <1>                0.0000
     25 H25         24.0214  35.6606  41.1709 H              1 <1>                0.0000
     26 H26         29.1794  36.2463  37.0062 H              1 <1>                0.0000
     27 H27         28.0150  37.5443  40.3898 H              1 <1>                0.0000
@<TRIPOS>BOND
    1    1    2 1     
    2    1   11 1     
    3    1   12 1     
    4    1   13 1     
    5    2    3 1     
    6    2    5 1     
    7    2   14 1     
    8    3    4 1     
    9    3   15 1     
   10    3   16 1     
   11    4   25 1     
   12    5    6 1     
   13    5   10 1     
   14    5   27 1     
   15    6    7 1     
   16    6   17 1     
   17    6   18 1     
   18    7    8 1     
   19    7   19 1     
   20    7   20 1     
   21    8    9 1     
   22    8   26 1     
   23    9   10 1     
   24    9   21 1     
   25    9   22 1     
   26   10   23 1     
   27   10   24 1     
@<TRIPOS>SUBSTRUCTURE
      1 ****           1
@<TRIPOS>SET
DONOR_HYDROGENS      STATIC     ATOMS    <user>   **** ""
3 25 27 26
ATOM$RED        STATIC     ATOMS    COLORGROUP SYSTEM
3 25 27 26
@<TRIPOS>COMMENT
> <Gold.Version>
2022.2.0

> <Gold.Id.Protein>
1qkm|1qkm_protein|mol2

> <Gold.Protein.RotatedTorsions>
[  496  491  490  487 ] final  176.78 input  -89.99 | X-H torsion

> <Gold.Protein.ActiveResidues>
 MET295  LEU298  THR299  LEU301  ALA302  GLU305  TRP335  MET336  LEU339  MET340 
 GLY342  LEU343  ARG346  PHE356  ILE373  ILE376  PHE377  LEU380  LYS471  GLY472 
 MET473  HIS475  LEU476  LEU477  ASN478  MET479  VAL484  VAL487 

> <Gold.Protein.RotatedAtoms>
   37.3188   33.4164   40.8951 H   0  0  0  0  0  0  0  0  0  0  0  0  # atno 496  bound_to 491 

> <Gold.Score>
     Score     S(PLP)   S(hbond)     S(cho)   S(metal)  DE(clash)   DE(tors)     intcor
     38.22     -32.71       1.96       0.00       0.00       0.13       0.12       0.00

> <Gold.PLP.Fitness>
38.2160

> <Gold.PLP.PLP>
-32.7099

> <Gold.PLP.part.hbond>
-3.1330

> <Gold.PLP.part.metal>
0.0000

> <Gold.PLP.part.buried>
0.7273

> <Gold.PLP.part.nonpolar>
-30.5229

> <Gold.PLP.part.repulsive>
0.0000

> <Gold.PLP.ligand.clash>
0.1330

> <Gold.PLP.ligand.torsion>
0.1195

> <Gold.PLP.Chemscore.Hbond>
1.9593

> <Gold.PLP.Chemscore.CHOScore>
0.0000

> <Gold.PLP.Chemscore.Metal>
0.0000

> <Gold.Chemscore.Hbonds>
donor molecule, donor type, donor heavy atom, donor atom, acceptor molecule, acceptor atom, score
      L1  H     4    25       P1  1131  0.98
      P1  H  1258  1270       L1     4  0.98

> <Gold.PLP.Chemscore.Internal.Correction>
0.0001

