#       Name:                EN300-69205_i002
#       Creating user name   aseyller
#       Creation time:       Fri Apr 21 15:34:37 2023


#       File generated by GOLD software.
#

@<TRIPOS>MOLECULE
EN300-69205_i002|amine_1|mol2|952|dock6
    27    27     1
SMALL
USER_CHARGES


@<TRIPOS>ATOM
      1 C1          25.8002  37.1882  39.0573 C.3            1 <1>                0.0000
      2 C2          27.0420  36.9407  39.9163 C.3            1 <1>                0.0000
      3 C3          26.7630  35.8029  40.9003 C.3            1 <1>                0.0000
      4 O4          25.6881  36.1743  41.7657 O.3            1 <1>                0.0000
      5 N5          28.1709  36.5740  39.0509 N.4            1 <1>                1.0000
      6 C6          29.3812  36.4129  39.8676 C.3            1 <1>                0.0000
      7 C7          30.5534  36.0125  38.9690 C.3            1 <1>                0.0000
      8 N8          30.7634  37.0512  37.9506 N.3            1 <1>                0.0000
      9 C9          29.5515  37.2413  37.1411 C.3            1 <1>                0.0000
     10 C10         28.3875  37.6316  38.0548 C.3            1 <1>                0.0000
     11 H11         25.9990  37.9988  38.3563 H              1 <1>                0.0000
     12 H12         25.5546  36.2815  38.5043 H              1 <1>                0.0000
     13 H13         24.9626  37.4602  39.6994 H              1 <1>                0.0000
     14 H14         27.2877  37.8474  40.4693 H              1 <1>                0.0000
     15 H15         26.4907  34.9035  40.3480 H              1 <1>                0.0000
     16 H16         27.6565  35.6083  41.4936 H              1 <1>                0.0000
     17 H17         29.6109  37.3544  40.3664 H              1 <1>                0.0000
     18 H18         29.2146  35.6370  40.6147 H              1 <1>                0.0000
     19 H19         31.4550  35.9073  39.5726 H              1 <1>                0.0000
     20 H20         30.3297  35.0641  38.4804 H              1 <1>                0.0000
     21 H21         29.7220  38.0326  36.4113 H              1 <1>                0.0000
     22 H22         29.3113  36.3132  36.6225 H              1 <1>                0.0000
     23 H23         27.4843  37.7591  37.4581 H              1 <1>                0.0000
     24 H24         28.6224  38.5668  38.5630 H              1 <1>                0.0000
     25 H25         25.7829  35.8504  42.6718 H              1 <1>                0.0000
     26 H26         31.0551  37.9193  38.3744 H              1 <1>                0.0000
     27 H27         27.9651  35.7059  38.5799 H              1 <1>                0.0000
@<TRIPOS>BOND
    1    1    2 1     
    2    1   11 1     
    3    1   12 1     
    4    1   13 1     
    5    2    3 1     
    6    2    5 1     
    7    2   14 1     
    8    3    4 1     
    9    3   15 1     
   10    3   16 1     
   11    4   25 1     
   12    5    6 1     
   13    5   10 1     
   14    5   27 1     
   15    6    7 1     
   16    6   17 1     
   17    6   18 1     
   18    7    8 1     
   19    7   19 1     
   20    7   20 1     
   21    8    9 1     
   22    8   26 1     
   23    9   10 1     
   24    9   21 1     
   25    9   22 1     
   26   10   23 1     
   27   10   24 1     
@<TRIPOS>SUBSTRUCTURE
      1 ****           1
@<TRIPOS>SET
DONOR_HYDROGENS      STATIC     ATOMS    <user>   **** ""
3 25 27 26
ATOM$RED        STATIC     ATOMS    COLORGROUP SYSTEM
3 25 27 26
@<TRIPOS>COMMENT
> <Gold.Version>
2022.2.0

> <Gold.Id.Protein>
1qkm|1qkm_protein|mol2

> <Gold.Protein.RotatedTorsions>
[  496  491  490  487 ] final   94.85 input  -89.99 | X-H torsion

> <Gold.Protein.ActiveResidues>
 MET295  LEU298  THR299  LEU301  ALA302  GLU305  TRP335  MET336  LEU339  MET340 
 GLY342  LEU343  ARG346  PHE356  ILE373  ILE376  PHE377  LEU380  LYS471  GLY472 
 MET473  HIS475  LEU476  LEU477  ASN478  MET479  VAL484  VAL487 

> <Gold.Protein.RotatedAtoms>
   36.8649   32.9931   41.9647 H   0  0  0  0  0  0  0  0  0  0  0  0  # atno 496  bound_to 491 

> <Gold.Score>
     Score     S(PLP)   S(hbond)     S(cho)   S(metal)  DE(clash)   DE(tors)     intcor
     34.28     -31.30       1.00       0.00       0.00       0.00       0.01       0.00

> <Gold.PLP.Fitness>
34.2803

> <Gold.PLP.PLP>
-31.3049

> <Gold.PLP.part.hbond>
-1.0000

> <Gold.PLP.part.metal>
0.0000

> <Gold.PLP.part.buried>
-3.3103

> <Gold.PLP.part.nonpolar>
-26.5742

> <Gold.PLP.part.repulsive>
0.0000

> <Gold.PLP.ligand.clash>
0.0000

> <Gold.PLP.ligand.torsion>
0.0123

> <Gold.PLP.Chemscore.Hbond>
1.0000

> <Gold.PLP.Chemscore.CHOScore>
0.0000

> <Gold.PLP.Chemscore.Metal>
0.0000

> <Gold.Chemscore.Hbonds>
donor molecule, donor type, donor heavy atom, donor atom, acceptor molecule, acceptor atom, score
      L1  H     4    25       P1   582  1.00

> <Gold.PLP.Chemscore.Internal.Correction>
0.0001

