#       Name:                EN300-69205_i002
#       Creating user name   aseyller
#       Creation time:       Fri Apr 21 15:34:35 2023


#       File generated by GOLD software.
#

@<TRIPOS>MOLECULE
EN300-69205_i002|amine_1|mol2|952|dock3
    27    27     1
SMALL
USER_CHARGES


@<TRIPOS>ATOM
      1 C1          30.6880  36.5404  38.4215 C.3            1 <1>                0.0000
      2 C2          30.2975  36.9627  37.0036 C.3            1 <1>                0.0000
      3 C3          29.4028  38.2021  37.0688 C.3            1 <1>                0.0000
      4 O4          28.1841  37.8750  37.7395 O.3            1 <1>                0.0000
      5 N5          31.5094  37.2735  36.2339 N.4            1 <1>                1.0000
      6 C6          31.1315  37.7363  34.8921 C.3            1 <1>                0.0000
      7 C7          32.3931  38.0781  34.0962 C.3            1 <1>                0.0000
      8 N8          33.2462  36.8853  33.9996 N.3            1 <1>                0.0000
      9 C9          33.6122  36.3956  35.3361 C.3            1 <1>                0.0000
     10 C10         32.3405  36.0676  36.1218 C.3            1 <1>                0.0000
     11 H11         31.3254  35.6574  38.3750 H              1 <1>                0.0000
     12 H12         31.2282  37.3533  38.9068 H              1 <1>                0.0000
     13 H13         29.7888  36.3098  38.9926 H              1 <1>                0.0000
     14 H14         29.7574  36.1497  36.5183 H              1 <1>                0.0000
     15 H15         29.9171  38.9930  37.6148 H              1 <1>                0.0000
     16 H16         29.1809  38.5436  36.0578 H              1 <1>                0.0000
     17 H17         30.5799  36.9491  34.3782 H              1 <1>                0.0000
     18 H18         30.5041  38.6235  34.9772 H              1 <1>                0.0000
     19 H19         32.1136  38.4075  33.0954 H              1 <1>                0.0000
     20 H20         32.9379  38.8748  34.6027 H              1 <1>                0.0000
     21 H21         34.2221  35.4974  35.2400 H              1 <1>                0.0000
     22 H22         34.1771  37.1645  35.8631 H              1 <1>                0.0000
     23 H23         32.6094  35.7177  37.1185 H              1 <1>                0.0000
     24 H24         31.7828  35.2890  35.6016 H              1 <1>                0.0000
     25 H25         27.4859  37.5543  37.1524 H              1 <1>                0.0000
     26 H26         32.7957  36.1613  33.4600 H              1 <1>                0.0000
     27 H27         32.0303  37.9978  36.7051 H              1 <1>                0.0000
@<TRIPOS>BOND
    1    1    2 1     
    2    1   11 1     
    3    1   12 1     
    4    1   13 1     
    5    2    3 1     
    6    2    5 1     
    7    2   14 1     
    8    3    4 1     
    9    3   15 1     
   10    3   16 1     
   11    4   25 1     
   12    5    6 1     
   13    5   10 1     
   14    5   27 1     
   15    6    7 1     
   16    6   17 1     
   17    6   18 1     
   18    7    8 1     
   19    7   19 1     
   20    7   20 1     
   21    8    9 1     
   22    8   26 1     
   23    9   10 1     
   24    9   21 1     
   25    9   22 1     
   26   10   23 1     
   27   10   24 1     
@<TRIPOS>SUBSTRUCTURE
      1 ****           1
@<TRIPOS>SET
DONOR_HYDROGENS      STATIC     ATOMS    <user>   **** ""
3 25 27 26
ATOM$RED        STATIC     ATOMS    COLORGROUP SYSTEM
3 25 27 26
@<TRIPOS>COMMENT
> <Gold.Version>
2022.2.0

> <Gold.Id.Protein>
1qkm|1qkm_protein|mol2

> <Gold.Protein.RotatedTorsions>
[  496  491  490  487 ] final  -87.36 input  -89.99 | X-H torsion

> <Gold.Protein.ActiveResidues>
 MET295  LEU298  THR299  LEU301  ALA302  GLU305  TRP335  MET336  LEU339  MET340 
 GLY342  LEU343  ARG346  PHE356  ILE373  ILE376  PHE377  LEU380  LYS471  GLY472 
 MET473  HIS475  LEU476  LEU477  ASN478  MET479  VAL484  VAL487 

> <Gold.Protein.RotatedAtoms>
   36.7330   34.6698   41.1113 H   0  0  0  0  0  0  0  0  0  0  0  0  # atno 496  bound_to 491 

> <Gold.Score>
     Score     S(PLP)   S(hbond)     S(cho)   S(metal)  DE(clash)   DE(tors)     intcor
     34.63     -31.66       1.00       0.00       0.00       0.00       0.01       0.00

> <Gold.PLP.Fitness>
34.6303

> <Gold.PLP.PLP>
-31.6590

> <Gold.PLP.part.hbond>
-2.1882

> <Gold.PLP.part.metal>
0.0000

> <Gold.PLP.part.buried>
-3.7494

> <Gold.PLP.part.nonpolar>
-25.7440

> <Gold.PLP.part.repulsive>
0.0000

> <Gold.PLP.ligand.clash>
0.0000

> <Gold.PLP.ligand.torsion>
0.0144

> <Gold.PLP.Chemscore.Hbond>
1.0000

> <Gold.PLP.Chemscore.CHOScore>
0.0000

> <Gold.PLP.Chemscore.Metal>
0.0000

> <Gold.Chemscore.Hbonds>
donor molecule, donor type, donor heavy atom, donor atom, acceptor molecule, acceptor atom, score
      L1  H     8    26       P1  3187  1.00

> <Gold.PLP.Chemscore.Internal.Correction>
0.0001

