#       Name:                plp ligand
#       Creating user name   aseyller
#       Creation time:       Fri Apr 21 15:34:33 2023


#       File generated by GOLD software.
#

@<TRIPOS>MOLECULE
plp ligand
    27    27     1
SMALL
USER_CHARGES


@<TRIPOS>ATOM
      1 C1           1.8635  -1.6057  -0.0569 NONPOLAR       1 <1>                0.0000
      2 C2           1.2587  -0.3414   0.5570 NONPOLAR       1 <1>                0.0000
      3 C3           2.2252   0.8296   0.3686 NONPOLAR       1 <1>                0.0000
      4 O4           2.5242   0.9817  -1.0205 DONACC         1 <1>                0.0000
      5 N5          -0.0157  -0.0361  -0.1067 DONOR          1 <1>                1.0000
      6 C6          -0.6233   1.1451   0.5204 NONPOLAR       1 <1>                0.0000
      7 C7          -1.9418   1.4747  -0.1829 NONPOLAR       1 <1>                0.0000
      8 N8          -2.8494   0.3232  -0.0810 DONACC         1 <1>                0.0000
      9 C9          -2.2441  -0.8734  -0.6826 NONPOLAR       1 <1>                0.0000
     10 C10         -0.9231  -1.1837   0.0249 NONPOLAR       1 <1>                0.0000
     11 H11          1.1749  -2.4399   0.0773                1 <1>                0.0000
     12 H12          2.0372  -1.4455  -1.1210                1 <1>                0.0000
     13 H13          2.8091  -1.8322   0.4355                1 <1>                0.0000
     14 H14          1.0850  -0.5016   1.6211                1 <1>                0.0000
     15 H15          1.7655   1.7440   0.7436                1 <1>                0.0000
     16 H16          3.1454   0.6334   0.9190                1 <1>                0.0000
     17 H17         -0.8148   0.9393   1.5735                1 <1>                0.0000
     18 H18          0.0566   1.9926   0.4336                1 <1>                0.0000
     19 H19         -2.4002   2.3423   0.2918                1 <1>                0.0000
     20 H20         -1.7489   1.6939  -1.2331                1 <1>                0.0000
     21 H21         -2.9230  -1.7189  -0.5724                1 <1>                0.0000
     22 H22         -2.0562  -0.6929  -1.7410                1 <1>                0.0000
     23 H23         -0.4655  -2.0626  -0.4293                1 <1>                0.0000
     24 H24         -1.1131  -1.3775   1.0805                1 <1>                0.0000
     25 H25          3.1330   1.7074  -1.2146                1 <1>                0.0000
     26 H26         -3.1108   0.1527   0.8786                1 <1>                0.0000
     27 H27          0.1506   0.1503  -1.0842                1 <1>                0.0000
@<TRIPOS>BOND
    1    1    2 1     
    2    1   11 1     
    3    1   12 1     
    4    1   13 1     
    5    2    3 1     
    6    2    5 1     
    7    2   14 1     
    8    3    4 1     
    9    3   15 1     
   10    3   16 1     
   11    4   25 1     
   12    5    6 1     
   13    5   10 1     
   14    5   27 1     
   15    6    7 1     
   16    6   17 1     
   17    6   18 1     
   18    7    8 1     
   19    7   19 1     
   20    7   20 1     
   21    8    9 1     
   22    8   26 1     
   23    9   10 1     
   24    9   21 1     
   25    9   22 1     
   26   10   23 1     
   27   10   24 1     
@<TRIPOS>SUBSTRUCTURE
      1 ****           1
@<TRIPOS>SET
DONOR_HYDROGENS      STATIC     ATOMS    <user>   **** ""
3 25 27 26
ATOM$RED        STATIC     ATOMS    COLORGROUP SYSTEM
3 25 27 26
