#       Name:                EN300-45541_i001
#       Creating user name   aseyller
#       Creation time:       Fri Apr 21 17:38:38 2023


#       File generated by GOLD software.
#

@<TRIPOS>MOLECULE
EN300-45541_i001|benzaldehydes|mol2|307|dock17
    23    24     1
SMALL
USER_CHARGES


@<TRIPOS>ATOM
      1 C1          29.0570  35.4766  39.0788 C.3            1 <1>                0.0000
      2 C2          30.0432  36.6354  38.9182 C.3            1 <1>                0.0000
      3 N3          31.0205  36.3044  37.8783 N.pl3          1 <1>                0.0000
      4 C4          31.7928  35.1720  37.8152 C.2            1 <1>                0.0000
      5 C5          31.7724  34.0760  38.7978 C.2            1 <1>                0.0000
      6 O6          31.7884  32.9236  38.4210 O.2            1 <1>                0.0000
      7 N7          32.5518  35.2144  36.7469 N.2            1 <1>                0.0000
      8 C8          32.3209  36.3513  36.0704 C.ar           1 <1>                0.0000
      9 C9          32.8450  36.8912  34.8866 C.ar           1 <1>                0.0000
     10 C10         32.4010  38.0993  34.4364 C.ar           1 <1>                0.0000
     11 C11         31.4315  38.8068  35.1375 C.ar           1 <1>                0.0000
     12 C12         30.9003  38.2994  36.3025 C.ar           1 <1>                0.0000
     13 C13         31.3331  37.0670  36.7777 C.ar           1 <1>                0.0000
     14 H14         28.3298  35.7229  39.8525 H              1 <1>                0.0000
     15 H15         28.5396  35.3064  38.1347 H              1 <1>                0.0000
     16 H16         29.5993  34.5750  39.3637 H              1 <1>                0.0000
     17 H17         29.5009  37.5371  38.6334 H              1 <1>                0.0000
     18 H18         30.5606  36.8056  39.8622 H              1 <1>                0.0000
     19 H19         31.7432  34.2983  39.8542 H              1 <1>                0.0000
     20 H20         33.5990  36.3513  34.3330 H              1 <1>                0.0000
     21 H21         32.8076  38.5114  33.5247 H              1 <1>                0.0000
     22 H22         31.0922  39.7623  34.7659 H              1 <1>                0.0000
     23 H23         30.1476  38.8549  36.8422 H              1 <1>                0.0000
@<TRIPOS>BOND
    1    1    2 1     
    2    1   14 1     
    3    1   15 1     
    4    1   16 1     
    5    2    3 1     
    6    2   17 1     
    7    2   18 1     
    8    3    4 1     
    9    3   13 1     
   10    4    5 1     
   11    4    7 2     
   12    5    6 2     
   13    5   19 1     
   14    7    8 1     
   15    8    9 ar    
   16    8   13 ar    
   17    9   10 ar    
   18    9   20 1     
   19   10   11 ar    
   20   10   21 1     
   21   11   12 ar    
   22   11   22 1     
   23   12   13 ar    
   24   12   23 1     
@<TRIPOS>SUBSTRUCTURE
      1 ****           1
@<TRIPOS>COMMENT
> <Gold.Version>
2022.2.0

> <Gold.Id.Protein>
1qkm|1qkm_protein|mol2

> <Gold.Protein.RotatedTorsions>
[  496  491  490  487 ] final  148.41 input  -89.99 | X-H torsion

> <Gold.Protein.ActiveResidues>
 MET295  LEU298  THR299  LEU301  ALA302  GLU305  TRP335  MET336  LEU339  MET340 
 GLY342  LEU343  ARG346  PHE356  ILE373  ILE376  PHE377  LEU380  LYS471  GLY472 
 MET473  HIS475  LEU476  LEU477  ASN478  MET479  VAL484  VAL487 

> <Gold.Protein.RotatedAtoms>
   37.2559   33.0901   41.2163 H   0  0  0  0  0  0  0  0  0  0  0  0  # atno 496  bound_to 491 

> <Gold.Score>
     Score     S(PLP)   S(hbond)     S(cho)   S(metal)  DE(clash)   DE(tors)     intcor
     42.85     -43.64       0.00       0.00       0.00       0.00       0.40       0.00

> <Gold.PLP.Fitness>
42.8502

> <Gold.PLP.PLP>
-43.6403

> <Gold.PLP.part.hbond>
0.0000

> <Gold.PLP.part.metal>
0.0000

> <Gold.PLP.part.buried>
-3.5985

> <Gold.PLP.part.nonpolar>
-40.4061

> <Gold.PLP.part.repulsive>
0.0572

> <Gold.PLP.ligand.clash>
0.0000

> <Gold.PLP.ligand.torsion>
0.3952

> <Gold.PLP.Chemscore.Hbond>
0.0000

> <Gold.PLP.Chemscore.CHOScore>
0.0000

> <Gold.PLP.Chemscore.Metal>
0.0000

> <Gold.PLP.Chemscore.Internal.Correction>
0.0003

