#       Name:                EN300-45541_i001
#       Creating user name   aseyller
#       Creation time:       Fri Apr 21 17:38:33 2023


#       File generated by GOLD software.
#

@<TRIPOS>MOLECULE
EN300-45541_i001|benzaldehydes|mol2|307|dock7
    23    24     1
SMALL
USER_CHARGES


@<TRIPOS>ATOM
      1 C1          31.0962  37.3025  35.6011 C.3            1 <1>                0.0000
      2 C2          30.6099  38.0809  36.8252 C.3            1 <1>                0.0000
      3 N3          30.0159  37.1522  37.7901 N.pl3          1 <1>                0.0000
      4 C4          30.6624  36.1383  38.4510 C.2            1 <1>                0.0000
      5 C5          32.0881  35.8029  38.3021 C.2            1 <1>                0.0000
      6 O6          32.8076  36.5023  37.6216 O.2            1 <1>                0.0000
      7 N7          29.8176  35.5135  39.2351 N.2            1 <1>                0.0000
      8 C8          28.6014  36.0733  39.1306 C.ar           1 <1>                0.0000
      9 C9          27.3629  35.8062  39.7326 C.ar           1 <1>                0.0000
     10 C10         26.2767  36.5685  39.4186 C.ar           1 <1>                0.0000
     11 C11         26.3800  37.6116  38.5058 C.ar           1 <1>                0.0000
     12 C12         27.5841  37.8952  37.9004 C.ar           1 <1>                0.0000
     13 C13         28.7065  37.1356  38.2093 C.ar           1 <1>                0.0000
     14 H14         31.5382  37.9935  34.8832 H              1 <1>                0.0000
     15 H15         31.8435  36.5711  35.9089 H              1 <1>                0.0000
     16 H16         30.2534  36.7885  35.1390 H              1 <1>                0.0000
     17 H17         31.4527  38.5950  37.2873 H              1 <1>                0.0000
     18 H18         29.8626  38.8122  36.5175 H              1 <1>                0.0000
     19 H19         32.4931  34.9339  38.7992 H              1 <1>                0.0000
     20 H20         27.2697  34.9982  40.4432 H              1 <1>                0.0000
     21 H21         25.3251  36.3590  39.8843 H              1 <1>                0.0000
     22 H22         25.5089  38.2045  38.2693 H              1 <1>                0.0000
     23 H23         27.6568  38.7071  37.1918 H              1 <1>                0.0000
@<TRIPOS>BOND
    1    1    2 1     
    2    1   14 1     
    3    1   15 1     
    4    1   16 1     
    5    2    3 1     
    6    2   17 1     
    7    2   18 1     
    8    3    4 1     
    9    3   13 1     
   10    4    5 1     
   11    4    7 2     
   12    5    6 2     
   13    5   19 1     
   14    7    8 1     
   15    8    9 ar    
   16    8   13 ar    
   17    9   10 ar    
   18    9   20 1     
   19   10   11 ar    
   20   10   21 1     
   21   11   12 ar    
   22   11   22 1     
   23   12   13 ar    
   24   12   23 1     
@<TRIPOS>SUBSTRUCTURE
      1 ****           1
@<TRIPOS>COMMENT
> <Gold.Version>
2022.2.0

> <Gold.Id.Protein>
1qkm|1qkm_protein|mol2

> <Gold.Protein.RotatedTorsions>
[  496  491  490  487 ] final  -81.01 input  -89.99 | X-H torsion

> <Gold.Protein.ActiveResidues>
 MET295  LEU298  THR299  LEU301  ALA302  GLU305  TRP335  MET336  LEU339  MET340 
 GLY342  LEU343  ARG346  PHE356  ILE373  ILE376  PHE377  LEU380  LYS471  GLY472 
 MET473  HIS475  LEU476  LEU477  ASN478  MET479  VAL484  VAL487 

> <Gold.Protein.RotatedAtoms>
   36.6750   34.7020   41.1920 H   0  0  0  0  0  0  0  0  0  0  0  0  # atno 496  bound_to 491 

> <Gold.Score>
     Score     S(PLP)   S(hbond)     S(cho)   S(metal)  DE(clash)   DE(tors)     intcor
     42.54     -42.58       0.00       0.00       0.00       0.00       0.02       0.00

> <Gold.PLP.Fitness>
42.5437

> <Gold.PLP.PLP>
-42.5788

> <Gold.PLP.part.hbond>
0.0000

> <Gold.PLP.part.metal>
0.0000

> <Gold.PLP.part.buried>
-3.2198

> <Gold.PLP.part.nonpolar>
-39.4197

> <Gold.PLP.part.repulsive>
0.0905

> <Gold.PLP.ligand.clash>
0.0000

> <Gold.PLP.ligand.torsion>
0.0177

> <Gold.PLP.Chemscore.Hbond>
0.0000

> <Gold.PLP.Chemscore.CHOScore>
0.0000

> <Gold.PLP.Chemscore.Metal>
0.0000

> <Gold.PLP.Chemscore.Internal.Correction>
0.0003

