#       Name:                EN300-45541_i001
#       Creating user name   aseyller
#       Creation time:       Fri Apr 21 17:38:32 2023


#       File generated by GOLD software.
#

@<TRIPOS>MOLECULE
EN300-45541_i001|benzaldehydes|mol2|307|dock3
    23    24     1
SMALL
USER_CHARGES


@<TRIPOS>ATOM
      1 C1          29.5209  40.3028  36.6992 C.3            1 <1>                0.0000
      2 C2          28.9029  38.9342  36.9926 C.3            1 <1>                0.0000
      3 N3          29.9673  37.9371  37.1304 N.pl3          1 <1>                0.0000
      4 C4          30.1309  37.0567  38.1700 C.2            1 <1>                0.0000
      5 C5          29.2505  36.9602  39.3459 C.2            1 <1>                0.0000
      6 O6          29.4271  36.0841  40.1653 O.2            1 <1>                0.0000
      7 N7          31.1904  36.3143  37.9570 N.2            1 <1>                0.0000
      8 C8          31.7626  36.6624  36.7931 C.ar           1 <1>                0.0000
      9 C9          32.8921  36.2032  36.0995 C.ar           1 <1>                0.0000
     10 C10         33.2320  36.7678  34.9057 C.ar           1 <1>                0.0000
     11 C11         32.4711  37.7971  34.3638 C.ar           1 <1>                0.0000
     12 C12         31.3575  38.2668  35.0241 C.ar           1 <1>                0.0000
     13 C13         30.9880  37.7026  36.2395 C.ar           1 <1>                0.0000
     14 H14         28.7289  41.0447  36.5968 H              1 <1>                0.0000
     15 H15         30.1809  40.5867  37.5189 H              1 <1>                0.0000
     16 H16         30.0931  40.2519  35.7729 H              1 <1>                0.0000
     17 H17         28.3306  38.9851  37.9190 H              1 <1>                0.0000
     18 H18         28.2430  38.6503  36.1730 H              1 <1>                0.0000
     19 H19         28.4473  37.6698  39.4787 H              1 <1>                0.0000
     20 H20         33.4916  35.4043  36.5103 H              1 <1>                0.0000
     21 H21         34.1026  36.4113  34.3754 H              1 <1>                0.0000
     22 H22         32.7558  38.2324  33.4173 H              1 <1>                0.0000
     23 H23         30.7713  39.0671  34.5971 H              1 <1>                0.0000
@<TRIPOS>BOND
    1    1    2 1     
    2    1   14 1     
    3    1   15 1     
    4    1   16 1     
    5    2    3 1     
    6    2   17 1     
    7    2   18 1     
    8    3    4 1     
    9    3   13 1     
   10    4    5 1     
   11    4    7 2     
   12    5    6 2     
   13    5   19 1     
   14    7    8 1     
   15    8    9 ar    
   16    8   13 ar    
   17    9   10 ar    
   18    9   20 1     
   19   10   11 ar    
   20   10   21 1     
   21   11   12 ar    
   22   11   22 1     
   23   12   13 ar    
   24   12   23 1     
@<TRIPOS>SUBSTRUCTURE
      1 ****           1
@<TRIPOS>COMMENT
> <Gold.Version>
2022.2.0

> <Gold.Id.Protein>
1qkm|1qkm_protein|mol2

> <Gold.Protein.RotatedTorsions>
[  496  491  490  487 ] final  130.69 input  -89.99 | X-H torsion

> <Gold.Protein.ActiveResidues>
 MET295  LEU298  THR299  LEU301  ALA302  GLU305  TRP335  MET336  LEU339  MET340 
 GLY342  LEU343  ARG346  PHE356  ILE373  ILE376  PHE377  LEU380  LYS471  GLY472 
 MET473  HIS475  LEU476  LEU477  ASN478  MET479  VAL484  VAL487 

> <Gold.Protein.RotatedAtoms>
   37.1576   32.9740   41.4638 H   0  0  0  0  0  0  0  0  0  0  0  0  # atno 496  bound_to 491 

> <Gold.Score>
     Score     S(PLP)   S(hbond)     S(cho)   S(metal)  DE(clash)   DE(tors)     intcor
     44.02     -44.17       0.00       0.00       0.00       0.00       0.08       0.00

> <Gold.PLP.Fitness>
44.0177

> <Gold.PLP.PLP>
-44.1676

> <Gold.PLP.part.hbond>
0.0000

> <Gold.PLP.part.metal>
0.0000

> <Gold.PLP.part.buried>
-3.1806

> <Gold.PLP.part.nonpolar>
-41.2463

> <Gold.PLP.part.repulsive>
0.1294

> <Gold.PLP.ligand.clash>
0.0000

> <Gold.PLP.ligand.torsion>
0.0751

> <Gold.PLP.Chemscore.Hbond>
0.0000

> <Gold.PLP.Chemscore.CHOScore>
0.0000

> <Gold.PLP.Chemscore.Metal>
0.0000

> <Gold.PLP.Chemscore.Internal.Correction>
0.0003

