#       Name:                EN300-45541_i001
#       Creating user name   aseyller
#       Creation time:       Fri Apr 21 17:38:34 2023


#       File generated by GOLD software.
#

@<TRIPOS>MOLECULE
EN300-45541_i001|benzaldehydes|mol2|307|dock9
    23    24     1
SMALL
USER_CHARGES


@<TRIPOS>ATOM
      1 C1          31.4915  33.8427  38.3930 C.3            1 <1>                0.0000
      2 C2          32.2673  35.1537  38.2501 C.3            1 <1>                0.0000
      3 N3          31.3587  36.2127  37.8038 N.pl3          1 <1>                0.0000
      4 C4          30.2174  36.6306  38.4406 C.2            1 <1>                0.0000
      5 C5          29.7003  36.0780  39.7033 C.2            1 <1>                0.0000
      6 O6          28.6695  36.5072  40.1758 O.2            1 <1>                0.0000
      7 N7          29.6575  37.5969  37.7538 N.2            1 <1>                0.0000
      8 C8          30.3867  37.8559  36.6563 C.ar           1 <1>                0.0000
      9 C9          30.2483  38.7700  35.6013 C.ar           1 <1>                0.0000
     10 C10         31.1754  38.7988  34.6017 C.ar           1 <1>                0.0000
     11 C11         32.2610  37.9308  34.6136 C.ar           1 <1>                0.0000
     12 C12         32.4206  37.0236  35.6375 C.ar           1 <1>                0.0000
     13 C13         31.4915  36.9799  36.6705 C.ar           1 <1>                0.0000
     14 H14         32.1675  33.0548  38.7252 H              1 <1>                0.0000
     15 H15         30.6943  33.9703  39.1254 H              1 <1>                0.0000
     16 H16         31.0599  33.5692  37.4302 H              1 <1>                0.0000
     17 H17         32.6989  35.4273  39.2130 H              1 <1>                0.0000
     18 H18         33.0644  35.0262  37.5177 H              1 <1>                0.0000
     19 H19         30.2391  35.2903  40.2088 H              1 <1>                0.0000
     20 H20         29.4090  39.4494  35.5805 H              1 <1>                0.0000
     21 H21         31.0646  39.5039  33.7913 H              1 <1>                0.0000
     22 H22         32.9851  37.9678  33.8133 H              1 <1>                0.0000
     23 H23         33.2664  36.3520  35.6399 H              1 <1>                0.0000
@<TRIPOS>BOND
    1    1    2 1     
    2    1   14 1     
    3    1   15 1     
    4    1   16 1     
    5    2    3 1     
    6    2   17 1     
    7    2   18 1     
    8    3    4 1     
    9    3   13 1     
   10    4    5 1     
   11    4    7 2     
   12    5    6 2     
   13    5   19 1     
   14    7    8 1     
   15    8    9 ar    
   16    8   13 ar    
   17    9   10 ar    
   18    9   20 1     
   19   10   11 ar    
   20   10   21 1     
   21   11   12 ar    
   22   11   22 1     
   23   12   13 ar    
   24   12   23 1     
@<TRIPOS>SUBSTRUCTURE
      1 ****           1
@<TRIPOS>COMMENT
> <Gold.Version>
2022.2.0

> <Gold.Id.Protein>
1qkm|1qkm_protein|mol2

> <Gold.Protein.RotatedTorsions>
[  496  491  490  487 ] final   35.62 input  -89.99 | X-H torsion

> <Gold.Protein.ActiveResidues>
 MET295  LEU298  THR299  LEU301  ALA302  GLU305  TRP335  MET336  LEU339  MET340 
 GLY342  LEU343  ARG346  PHE356  ILE373  ILE376  PHE377  LEU380  LYS471  GLY472 
 MET473  HIS475  LEU476  LEU477  ASN478  MET479  VAL484  VAL487 

> <Gold.Protein.RotatedAtoms>
   36.3770   33.6683   42.3832 H   0  0  0  0  0  0  0  0  0  0  0  0  # atno 496  bound_to 491 

> <Gold.Score>
     Score     S(PLP)   S(hbond)     S(cho)   S(metal)  DE(clash)   DE(tors)     intcor
     43.28     -43.29       0.00       0.00       0.00       0.00       0.00       0.00

> <Gold.PLP.Fitness>
43.2844

> <Gold.PLP.PLP>
-43.2938

> <Gold.PLP.part.hbond>
0.0000

> <Gold.PLP.part.metal>
0.0000

> <Gold.PLP.part.buried>
-3.4986

> <Gold.PLP.part.nonpolar>
-40.3613

> <Gold.PLP.part.repulsive>
0.0598

> <Gold.PLP.ligand.clash>
0.0000

> <Gold.PLP.ligand.torsion>
0.0049

> <Gold.PLP.Chemscore.Hbond>
0.0000

> <Gold.PLP.Chemscore.CHOScore>
0.0000

> <Gold.PLP.Chemscore.Metal>
0.0000

> <Gold.PLP.Chemscore.Internal.Correction>
0.0003

