#       Name:                EN300-45541_i001
#       Creating user name   aseyller
#       Creation time:       Fri Apr 21 17:38:31 2023


#       File generated by GOLD software.
#

@<TRIPOS>MOLECULE
EN300-45541_i001|benzaldehydes|mol2|307|dock2
    23    24     1
SMALL
USER_CHARGES


@<TRIPOS>ATOM
      1 C1          30.9084  34.6051  38.7646 C.3            1 <1>                0.0000
      2 C2          30.9784  36.1332  38.7988 C.3            1 <1>                0.0000
      3 N3          29.6550  36.6893  38.5065 N.pl3          1 <1>                0.0000
      4 C4          29.3255  37.4980  37.4480 C.2            1 <1>                0.0000
      5 C5          30.2603  37.9539  36.4062 C.2            1 <1>                0.0000
      6 O6          29.9551  38.8745  35.6786 O.2            1 <1>                0.0000
      7 N7          28.0517  37.8030  37.5055 N.2            1 <1>                0.0000
      8 C8          27.4936  37.2229  38.5804 C.ar           1 <1>                0.0000
      9 C9          26.1928  37.2166  39.1053 C.ar           1 <1>                0.0000
     10 C10         25.9229  36.5151  40.2430 C.ar           1 <1>                0.0000
     11 C11         26.9238  35.8026  40.8933 C.ar           1 <1>                0.0000
     12 C12         28.2093  35.7921  40.3992 C.ar           1 <1>                0.0000
     13 C13         28.5069  36.4949  39.2375 C.ar           1 <1>                0.0000
     14 H14         31.8931  34.1914  38.9822 H              1 <1>                0.0000
     15 H15         30.1949  34.2573  39.5116 H              1 <1>                0.0000
     16 H16         30.5874  34.2783  37.7755 H              1 <1>                0.0000
     17 H17         31.2995  36.4601  39.7879 H              1 <1>                0.0000
     18 H18         31.6919  36.4811  38.0519 H              1 <1>                0.0000
     19 H19         31.2180  37.4684  36.2900 H              1 <1>                0.0000
     20 H20         25.4066  37.7665  38.6094 H              1 <1>                0.0000
     21 H21         24.9201  36.5134  40.6437 H              1 <1>                0.0000
     22 H22         26.6915  35.2530  41.7934 H              1 <1>                0.0000
     23 H23         28.9819  35.2365  40.9100 H              1 <1>                0.0000
@<TRIPOS>BOND
    1    1    2 1     
    2    1   14 1     
    3    1   15 1     
    4    1   16 1     
    5    2    3 1     
    6    2   17 1     
    7    2   18 1     
    8    3    4 1     
    9    3   13 1     
   10    4    5 1     
   11    4    7 2     
   12    5    6 2     
   13    5   19 1     
   14    7    8 1     
   15    8    9 ar    
   16    8   13 ar    
   17    9   10 ar    
   18    9   20 1     
   19   10   11 ar    
   20   10   21 1     
   21   11   12 ar    
   22   11   22 1     
   23   12   13 ar    
   24   12   23 1     
@<TRIPOS>SUBSTRUCTURE
      1 ****           1
@<TRIPOS>COMMENT
> <Gold.Version>
2022.2.0

> <Gold.Id.Protein>
1qkm|1qkm_protein|mol2

> <Gold.Protein.RotatedTorsions>
[  496  491  490  487 ] final   12.52 input  -89.99 | X-H torsion

> <Gold.Protein.ActiveResidues>
 MET295  LEU298  THR299  LEU301  ALA302  GLU305  TRP335  MET336  LEU339  MET340 
 GLY342  LEU343  ARG346  PHE356  ILE373  ILE376  PHE377  LEU380  LYS471  GLY472 
 MET473  HIS475  LEU476  LEU477  ASN478  MET479  VAL484  VAL487 

> <Gold.Protein.RotatedAtoms>
   36.2791   34.0279   42.3222 H   0  0  0  0  0  0  0  0  0  0  0  0  # atno 496  bound_to 491 

> <Gold.Score>
     Score     S(PLP)   S(hbond)     S(cho)   S(metal)  DE(clash)   DE(tors)     intcor
     44.80     -44.91       0.00       0.00       0.00       0.00       0.05       0.00

> <Gold.PLP.Fitness>
44.8038

> <Gold.PLP.PLP>
-44.9118

> <Gold.PLP.part.hbond>
0.0000

> <Gold.PLP.part.metal>
0.0000

> <Gold.PLP.part.buried>
-3.2088

> <Gold.PLP.part.nonpolar>
-41.6629

> <Gold.PLP.part.repulsive>
0.0000

> <Gold.PLP.ligand.clash>
0.0000

> <Gold.PLP.ligand.torsion>
0.0542

> <Gold.PLP.Chemscore.Hbond>
0.0000

> <Gold.PLP.Chemscore.CHOScore>
0.0000

> <Gold.PLP.Chemscore.Metal>
0.0000

> <Gold.PLP.Chemscore.Internal.Correction>
0.0003

