#       Name:                EN300-45541_i001
#       Creating user name   aseyller
#       Creation time:       Fri Apr 21 17:38:31 2023


#       File generated by GOLD software.
#

@<TRIPOS>MOLECULE
EN300-45541_i001|benzaldehydes|mol2|307|dock1
    23    24     1
SMALL
USER_CHARGES


@<TRIPOS>ATOM
      1 C1          31.4997  33.1053  38.0832 C.3            1 <1>                0.0000
      2 C2          31.7930  34.3349  38.9452 C.3            1 <1>                0.0000
      3 N3          31.4061  35.5456  38.2168 N.pl3          1 <1>                0.0000
      4 C4          30.3687  36.3882  38.5273 C.2            1 <1>                0.0000
      5 C5          29.4499  36.2183  39.6650 C.2            1 <1>                0.0000
      6 O6          28.4199  36.8562  39.7130 O.2            1 <1>                0.0000
      7 N7          30.3198  37.3675  37.6570 N.2            1 <1>                0.0000
      8 C8          31.3008  37.2202  36.7518 C.ar           1 <1>                0.0000
      9 C9          31.6968  37.9644  35.6306 C.ar           1 <1>                0.0000
     10 C10         32.7619  37.5540  34.8847 C.ar           1 <1>                0.0000
     11 C11         33.4643  36.4027  35.2215 C.ar           1 <1>                0.0000
     12 C12         33.0965  35.6537  36.3171 C.ar           1 <1>                0.0000
     13 C13         32.0177  36.0558  37.0960 C.ar           1 <1>                0.0000
     14 H14         31.7875  32.2045  38.6252 H              1 <1>                0.0000
     15 H15         30.4346  33.0674  37.8549 H              1 <1>                0.0000
     16 H16         32.0682  33.1682  37.1553 H              1 <1>                0.0000
     17 H17         31.2245  34.2719  39.8732 H              1 <1>                0.0000
     18 H18         32.8581  34.3729  39.1736 H              1 <1>                0.0000
     19 H19         29.6933  35.5255  40.4569 H              1 <1>                0.0000
     20 H20         31.1589  38.8605  35.3585 H              1 <1>                0.0000
     21 H21         33.0630  38.1298  34.0221 H              1 <1>                0.0000
     22 H22         34.3052  36.0929  34.6188 H              1 <1>                0.0000
     23 H23         33.6468  34.7602  36.5725 H              1 <1>                0.0000
@<TRIPOS>BOND
    1    1    2 1     
    2    1   14 1     
    3    1   15 1     
    4    1   16 1     
    5    2    3 1     
    6    2   17 1     
    7    2   18 1     
    8    3    4 1     
    9    3   13 1     
   10    4    5 1     
   11    4    7 2     
   12    5    6 2     
   13    5   19 1     
   14    7    8 1     
   15    8    9 ar    
   16    8   13 ar    
   17    9   10 ar    
   18    9   20 1     
   19   10   11 ar    
   20   10   21 1     
   21   11   12 ar    
   22   11   22 1     
   23   12   13 ar    
   24   12   23 1     
@<TRIPOS>SUBSTRUCTURE
      1 ****           1
@<TRIPOS>COMMENT
> <Gold.Version>
2022.2.0

> <Gold.Id.Protein>
1qkm|1qkm_protein|mol2

> <Gold.Protein.RotatedTorsions>
[  496  491  490  487 ] final  -20.65 input  -89.99 | X-H torsion

> <Gold.Protein.ActiveResidues>
 MET295  LEU298  THR299  LEU301  ALA302  GLU305  TRP335  MET336  LEU339  MET340 
 GLY342  LEU343  ARG346  PHE356  ILE373  ILE376  PHE377  LEU380  LYS471  GLY472 
 MET473  HIS475  LEU476  LEU477  ASN478  MET479  VAL484  VAL487 

> <Gold.Protein.RotatedAtoms>
   36.2826   34.4771   42.0255 H   0  0  0  0  0  0  0  0  0  0  0  0  # atno 496  bound_to 491 

> <Gold.Score>
     Score     S(PLP)   S(hbond)     S(cho)   S(metal)  DE(clash)   DE(tors)     intcor
     45.53     -45.76       0.00       0.00       0.00       0.00       0.12       0.00

> <Gold.PLP.Fitness>
45.5341

> <Gold.PLP.PLP>
-45.7640

> <Gold.PLP.part.hbond>
0.0000

> <Gold.PLP.part.metal>
0.0000

> <Gold.PLP.part.buried>
-2.7641

> <Gold.PLP.part.nonpolar>
-43.1577

> <Gold.PLP.part.repulsive>
0.0245

> <Gold.PLP.ligand.clash>
0.0000

> <Gold.PLP.ligand.torsion>
0.1161

> <Gold.PLP.Chemscore.Hbond>
0.0000

> <Gold.PLP.Chemscore.CHOScore>
0.0000

> <Gold.PLP.Chemscore.Metal>
0.0000

> <Gold.PLP.Chemscore.Internal.Correction>
0.0023

