#       Name:                EN300-45541_i001
#       Creating user name   aseyller
#       Creation time:       Fri Apr 21 17:38:33 2023


#       File generated by GOLD software.
#

@<TRIPOS>MOLECULE
EN300-45541_i001|benzaldehydes|mol2|307|dock5
    23    24     1
SMALL
USER_CHARGES


@<TRIPOS>ATOM
      1 C1          29.9815  39.6734  37.0242 C.3            1 <1>                0.0000
      2 C2          29.3036  38.3418  36.6952 C.3            1 <1>                0.0000
      3 N3          29.4581  37.4228  37.8256 N.pl3          1 <1>                0.0000
      4 C4          30.6213  36.8205  38.2344 C.2            1 <1>                0.0000
      5 C5          31.9367  36.9968  37.5973 C.2            1 <1>                0.0000
      6 O6          32.8254  36.2001  37.8108 O.2            1 <1>                0.0000
      7 N7          30.3834  36.0643  39.2786 N.2            1 <1>                0.0000
      8 C8          29.0812  36.1306  39.6004 C.ar           1 <1>                0.0000
      9 C9          28.3060  35.5356  40.6068 C.ar           1 <1>                0.0000
     10 C10         26.9710  35.8025  40.6828 C.ar           1 <1>                0.0000
     11 C11         26.3645  36.6602  39.7725 C.ar           1 <1>                0.0000
     12 C12         27.1024  37.2575  38.7748 C.ar           1 <1>                0.0000
     13 C13         28.4661  37.0052  38.6812 C.ar           1 <1>                0.0000
     14 H14         29.8665  40.3572  36.1831 H              1 <1>                0.0000
     15 H15         29.5193  40.1071  37.9110 H              1 <1>                0.0000
     16 H16         31.0417  39.5045  37.2128 H              1 <1>                0.0000
     17 H17         28.2434  38.5106  36.5066 H              1 <1>                0.0000
     18 H18         29.7658  37.9081  35.8085 H              1 <1>                0.0000
     19 H19         32.1101  37.8357  36.9397 H              1 <1>                0.0000
     20 H20         28.7656  34.8672  41.3198 H              1 <1>                0.0000
     21 H21         26.3780  35.3419  41.4590 H              1 <1>                0.0000
     22 H22         25.3058  36.8596  39.8480 H              1 <1>                0.0000
     23 H23         26.6243  37.9225  38.0708 H              1 <1>                0.0000
@<TRIPOS>BOND
    1    1    2 1     
    2    1   14 1     
    3    1   15 1     
    4    1   16 1     
    5    2    3 1     
    6    2   17 1     
    7    2   18 1     
    8    3    4 1     
    9    3   13 1     
   10    4    5 1     
   11    4    7 2     
   12    5    6 2     
   13    5   19 1     
   14    7    8 1     
   15    8    9 ar    
   16    8   13 ar    
   17    9   10 ar    
   18    9   20 1     
   19   10   11 ar    
   20   10   21 1     
   21   11   12 ar    
   22   11   22 1     
   23   12   13 ar    
   24   12   23 1     
@<TRIPOS>SUBSTRUCTURE
      1 ****           1
@<TRIPOS>COMMENT
> <Gold.Version>
2022.2.0

> <Gold.Id.Protein>
1qkm|1qkm_protein|mol2

> <Gold.Protein.RotatedTorsions>
[  496  491  490  487 ] final  144.33 input  -89.99 | X-H torsion

> <Gold.Protein.ActiveResidues>
 MET295  LEU298  THR299  LEU301  ALA302  GLU305  TRP335  MET336  LEU339  MET340 
 GLY342  LEU343  ARG346  PHE356  ILE373  ILE376  PHE377  LEU380  LYS471  GLY472 
 MET473  HIS475  LEU476  LEU477  ASN478  MET479  VAL484  VAL487 

> <Gold.Protein.RotatedAtoms>
   37.2370   33.0566   41.2713 H   0  0  0  0  0  0  0  0  0  0  0  0  # atno 496  bound_to 491 

> <Gold.Score>
     Score     S(PLP)   S(hbond)     S(cho)   S(metal)  DE(clash)   DE(tors)     intcor
     44.19     -44.53       0.00       0.00       0.00       0.00       0.17       0.00

> <Gold.PLP.Fitness>
44.1927

> <Gold.PLP.PLP>
-44.5301

> <Gold.PLP.part.hbond>
0.0000

> <Gold.PLP.part.metal>
0.0000

> <Gold.PLP.part.buried>
-3.4776

> <Gold.PLP.part.nonpolar>
-41.6366

> <Gold.PLP.part.repulsive>
0.1169

> <Gold.PLP.ligand.clash>
0.0000

> <Gold.PLP.ligand.torsion>
0.1689

> <Gold.PLP.Chemscore.Hbond>
0.0000

> <Gold.PLP.Chemscore.CHOScore>
0.0000

> <Gold.PLP.Chemscore.Metal>
0.0000

> <Gold.PLP.Chemscore.Internal.Correction>
0.0003

