#       Name:                EN300-45541_i001
#       Creating user name   aseyller
#       Creation time:       Fri Apr 21 17:38:34 2023


#       File generated by GOLD software.
#

@<TRIPOS>MOLECULE
EN300-45541_i001|benzaldehydes|mol2|307|dock8
    23    24     1
SMALL
USER_CHARGES


@<TRIPOS>ATOM
      1 C1          31.0251  34.2053  38.7991 C.3            1 <1>                0.0000
      2 C2          31.9511  35.4187  38.6940 C.3            1 <1>                0.0000
      3 N3          31.3759  36.3929  37.7633 N.pl3          1 <1>                0.0000
      4 C4          30.2144  37.1019  37.9390 C.2            1 <1>                0.0000
      5 C5          29.3310  37.0046  39.1127 C.2            1 <1>                0.0000
      6 O6          29.6971  36.4013  40.0986 O.2            1 <1>                0.0000
      7 N7          30.0108  37.8792  36.9031 N.2            1 <1>                0.0000
      8 C8          31.0060  37.7229  36.0151 C.ar           1 <1>                0.0000
      9 C9          31.2805  38.2963  34.7647 C.ar           1 <1>                0.0000
     10 C10         32.4009  37.9285  34.0801 C.ar           1 <1>                0.0000
     11 C11         33.2793  36.9887  34.6065 C.ar           1 <1>                0.0000
     12 C12         33.0336  36.4103  35.8321 C.ar           1 <1>                0.0000
     13 C13         31.9009  36.7741  36.5510 C.ar           1 <1>                0.0000
     14 H14         31.4531  33.4804  39.4916 H              1 <1>                0.0000
     15 H15         30.0487  34.5239  39.1640 H              1 <1>                0.0000
     16 H16         30.9139  33.7470  37.8163 H              1 <1>                0.0000
     17 H17         32.0624  35.8770  39.6767 H              1 <1>                0.0000
     18 H18         32.9275  35.1001  38.3290 H              1 <1>                0.0000
     19 H19         28.3569  37.4706  39.0954 H              1 <1>                0.0000
     20 H20         30.6054  39.0274  34.3448 H              1 <1>                0.0000
     21 H21         32.6079  38.3723  33.1175 H              1 <1>                0.0000
     22 H22         34.1616  36.7094  34.0498 H              1 <1>                0.0000
     23 H23         33.7205  35.6805  36.2347 H              1 <1>                0.0000
@<TRIPOS>BOND
    1    1    2 1     
    2    1   14 1     
    3    1   15 1     
    4    1   16 1     
    5    2    3 1     
    6    2   17 1     
    7    2   18 1     
    8    3    4 1     
    9    3   13 1     
   10    4    5 1     
   11    4    7 2     
   12    5    6 2     
   13    5   19 1     
   14    7    8 1     
   15    8    9 ar    
   16    8   13 ar    
   17    9   10 ar    
   18    9   20 1     
   19   10   11 ar    
   20   10   21 1     
   21   11   12 ar    
   22   11   22 1     
   23   12   13 ar    
   24   12   23 1     
@<TRIPOS>SUBSTRUCTURE
      1 ****           1
@<TRIPOS>COMMENT
> <Gold.Version>
2022.2.0

> <Gold.Id.Protein>
1qkm|1qkm_protein|mol2

> <Gold.Protein.RotatedTorsions>
[  496  491  490  487 ] final -136.52 input  -89.99 | X-H torsion

> <Gold.Protein.ActiveResidues>
 MET295  LEU298  THR299  LEU301  ALA302  GLU305  TRP335  MET336  LEU339  MET340 
 GLY342  LEU343  ARG346  PHE356  ILE373  ILE376  PHE377  LEU380  LYS471  GLY472 
 MET473  HIS475  LEU476  LEU477  ASN478  MET479  VAL484  VAL487 

> <Gold.Protein.RotatedAtoms>
   37.1510   34.1261   40.7301 H   0  0  0  0  0  0  0  0  0  0  0  0  # atno 496  bound_to 491 

> <Gold.Score>
     Score     S(PLP)   S(hbond)     S(cho)   S(metal)  DE(clash)   DE(tors)     intcor
     44.45     -44.57       0.00       0.00       0.00       0.00       0.06       0.00

> <Gold.PLP.Fitness>
44.4538

> <Gold.PLP.PLP>
-44.5677

> <Gold.PLP.part.hbond>
0.0000

> <Gold.PLP.part.metal>
0.0000

> <Gold.PLP.part.buried>
-2.9009

> <Gold.PLP.part.nonpolar>
-42.1807

> <Gold.PLP.part.repulsive>
0.0978

> <Gold.PLP.ligand.clash>
0.0000

> <Gold.PLP.ligand.torsion>
0.0571

> <Gold.PLP.Chemscore.Hbond>
0.0000

> <Gold.PLP.Chemscore.CHOScore>
0.0000

> <Gold.PLP.Chemscore.Metal>
0.0000

> <Gold.PLP.Chemscore.Internal.Correction>
0.0003

