#       Name:                EN300-45541_i001
#       Creating user name   aseyller
#       Creation time:       Fri Apr 21 17:38:35 2023


#       File generated by GOLD software.
#

@<TRIPOS>MOLECULE
EN300-45541_i001|benzaldehydes|mol2|307|dock12
    23    24     1
SMALL
USER_CHARGES


@<TRIPOS>ATOM
      1 C1          30.8885  34.3320  38.5127 C.3            1 <1>                0.0000
      2 C2          31.2590  35.7884  38.8004 C.3            1 <1>                0.0000
      3 N3          30.2369  36.6730  38.2355 N.pl3          1 <1>                0.0000
      4 C4          30.4263  37.6217  37.2624 C.2            1 <1>                0.0000
      5 C5          31.7105  37.9193  36.6070 C.2            1 <1>                0.0000
      6 O6          32.6839  37.2358  36.8421 O.2            1 <1>                0.0000
      7 N7          29.2900  38.2228  37.0049 N.2            1 <1>                0.0000
      8 C8          28.3194  37.7104  37.7788 C.ar           1 <1>                0.0000
      9 C9          26.9488  37.9790  37.9095 C.ar           1 <1>                0.0000
     10 C10         26.2010  37.2738  38.8055 C.ar           1 <1>                0.0000
     11 C11         26.7806  36.2876  39.5951 C.ar           1 <1>                0.0000
     12 C12         28.1240  36.0039  39.4868 C.ar           1 <1>                0.0000
     13 C13         28.9052  36.7056  38.5760 C.ar           1 <1>                0.0000
     14 H14         31.6490  33.6739  38.9330 H              1 <1>                0.0000
     15 H15         29.9227  34.1067  38.9649 H              1 <1>                0.0000
     16 H16         30.8301  34.1781  37.4352 H              1 <1>                0.0000
     17 H17         31.3175  35.9424  39.8779 H              1 <1>                0.0000
     18 H18         32.2247  36.0138  38.3482 H              1 <1>                0.0000
     19 H19         31.7855  38.7465  35.9168 H              1 <1>                0.0000
     20 H20         26.4868  38.7431  37.3019 H              1 <1>                0.0000
     21 H21         25.1462  37.4842  38.9030 H              1 <1>                0.0000
     22 H22         26.1727  35.7394  40.2995 H              1 <1>                0.0000
     23 H23         28.5676  35.2365  40.1038 H              1 <1>                0.0000
@<TRIPOS>BOND
    1    1    2 1     
    2    1   14 1     
    3    1   15 1     
    4    1   16 1     
    5    2    3 1     
    6    2   17 1     
    7    2   18 1     
    8    3    4 1     
    9    3   13 1     
   10    4    5 1     
   11    4    7 2     
   12    5    6 2     
   13    5   19 1     
   14    7    8 1     
   15    8    9 ar    
   16    8   13 ar    
   17    9   10 ar    
   18    9   20 1     
   19   10   11 ar    
   20   10   21 1     
   21   11   12 ar    
   22   11   22 1     
   23   12   13 ar    
   24   12   23 1     
@<TRIPOS>SUBSTRUCTURE
      1 ****           1
@<TRIPOS>COMMENT
> <Gold.Version>
2022.2.0

> <Gold.Id.Protein>
1qkm|1qkm_protein|mol2

> <Gold.Protein.RotatedTorsions>
[  496  491  490  487 ] final  141.08 input  -89.99 | X-H torsion

> <Gold.Protein.ActiveResidues>
 MET295  LEU298  THR299  LEU301  ALA302  GLU305  TRP335  MET336  LEU339  MET340 
 GLY342  LEU343  ARG346  PHE356  ILE373  ILE376  PHE377  LEU380  LYS471  GLY472 
 MET473  HIS475  LEU476  LEU477  ASN478  MET479  VAL484  VAL487 

> <Gold.Protein.RotatedAtoms>
   37.2202   33.0327   41.3161 H   0  0  0  0  0  0  0  0  0  0  0  0  # atno 496  bound_to 491 

> <Gold.Score>
     Score     S(PLP)   S(hbond)     S(cho)   S(metal)  DE(clash)   DE(tors)     intcor
     42.42     -42.44       0.00       0.00       0.00       0.00       0.01       0.00

> <Gold.PLP.Fitness>
42.4174

> <Gold.PLP.PLP>
-42.4369

> <Gold.PLP.part.hbond>
0.0000

> <Gold.PLP.part.metal>
0.0000

> <Gold.PLP.part.buried>
-2.7330

> <Gold.PLP.part.nonpolar>
-39.9053

> <Gold.PLP.part.repulsive>
0.0000

> <Gold.PLP.ligand.clash>
0.0000

> <Gold.PLP.ligand.torsion>
0.0099

> <Gold.PLP.Chemscore.Hbond>
0.0000

> <Gold.PLP.Chemscore.CHOScore>
0.0000

> <Gold.PLP.Chemscore.Metal>
0.0000

> <Gold.PLP.Chemscore.Internal.Correction>
0.0003

