#       Name:                EN300-45541_i001
#       Creating user name   aseyller
#       Creation time:       Fri Apr 21 17:38:39 2023


#       File generated by GOLD software.
#

@<TRIPOS>MOLECULE
EN300-45541_i001|benzaldehydes|mol2|307|dock20
    23    24     1
SMALL
USER_CHARGES


@<TRIPOS>ATOM
      1 C1          31.7625  34.1110  38.2012 C.3            1 <1>                0.0000
      2 C2          31.3285  35.4602  38.7776 C.3            1 <1>                0.0000
      3 N3          30.8586  36.3261  37.6934 N.pl3          1 <1>                0.0000
      4 C4          29.6201  36.9081  37.5925 C.2            1 <1>                0.0000
      5 C5          28.5316  36.7606  38.5726 C.2            1 <1>                0.0000
      6 O6          27.4387  37.2313  38.3403 O.2            1 <1>                0.0000
      7 N7          29.5533  37.6156  36.4907 N.2            1 <1>                0.0000
      8 C8          30.7185  37.5352  35.8278 C.ar           1 <1>                0.0000
      9 C9          31.1814  38.0846  34.6230 C.ar           1 <1>                0.0000
     10 C10         32.4485  37.8164  34.1968 C.ar           1 <1>                0.0000
     11 C11         33.2923  37.0021  34.9432 C.ar           1 <1>                0.0000
     12 C12         32.8629  36.4499  36.1296 C.ar           1 <1>                0.0000
     13 C13         31.5772  36.7141  36.5872 C.ar           1 <1>                0.0000
     14 H14         32.1120  33.4668  39.0080 H              1 <1>                0.0000
     15 H15         30.9160  33.6404  37.7012 H              1 <1>                0.0000
     16 H16         32.5686  34.2648  37.4838 H              1 <1>                0.0000
     17 H17         30.5224  35.3065  39.4951 H              1 <1>                0.0000
     18 H18         32.1749  35.9309  39.2776 H              1 <1>                0.0000
     19 H19         28.7066  36.2330  39.4986 H              1 <1>                0.0000
     20 H20         30.5352  38.7186  34.0339 H              1 <1>                0.0000
     21 H21         32.8005  38.2413  33.2684 H              1 <1>                0.0000
     22 H22         34.2926  36.8004  34.5898 H              1 <1>                0.0000
     23 H23         33.5239  35.8178  36.7041 H              1 <1>                0.0000
@<TRIPOS>BOND
    1    1    2 1     
    2    1   14 1     
    3    1   15 1     
    4    1   16 1     
    5    2    3 1     
    6    2   17 1     
    7    2   18 1     
    8    3    4 1     
    9    3   13 1     
   10    4    5 1     
   11    4    7 2     
   12    5    6 2     
   13    5   19 1     
   14    7    8 1     
   15    8    9 ar    
   16    8   13 ar    
   17    9   10 ar    
   18    9   20 1     
   19   10   11 ar    
   20   10   21 1     
   21   11   12 ar    
   22   11   22 1     
   23   12   13 ar    
   24   12   23 1     
@<TRIPOS>SUBSTRUCTURE
      1 ****           1
@<TRIPOS>COMMENT
> <Gold.Version>
2022.2.0

> <Gold.Id.Protein>
1qkm|1qkm_protein|mol2

> <Gold.Protein.RotatedTorsions>
[  496  491  490  487 ] final -147.40 input  -89.99 | X-H torsion

> <Gold.Protein.ActiveResidues>
 MET295  LEU298  THR299  LEU301  ALA302  GLU305  TRP335  MET336  LEU339  MET340 
 GLY342  LEU343  ARG346  PHE356  ILE373  ILE376  PHE377  LEU380  LYS471  GLY472 
 MET473  HIS475  LEU476  LEU477  ASN478  MET479  VAL484  VAL487 

> <Gold.Protein.RotatedAtoms>
   37.2176   33.9603   40.7207 H   0  0  0  0  0  0  0  0  0  0  0  0  # atno 496  bound_to 491 

> <Gold.Score>
     Score     S(PLP)   S(hbond)     S(cho)   S(metal)  DE(clash)   DE(tors)     intcor
     42.75     -42.77       0.00       0.00       0.00       0.00       0.01       0.00

> <Gold.PLP.Fitness>
42.7455

> <Gold.PLP.PLP>
-42.7688

> <Gold.PLP.part.hbond>
0.0000

> <Gold.PLP.part.metal>
0.0000

> <Gold.PLP.part.buried>
-3.1868

> <Gold.PLP.part.nonpolar>
-40.0490

> <Gold.PLP.part.repulsive>
0.0000

> <Gold.PLP.ligand.clash>
0.0000

> <Gold.PLP.ligand.torsion>
0.0118

> <Gold.PLP.Chemscore.Hbond>
0.0000

> <Gold.PLP.Chemscore.CHOScore>
0.0000

> <Gold.PLP.Chemscore.Metal>
0.0000

> <Gold.PLP.Chemscore.Internal.Correction>
0.0003

