#       Name:                EN300-45541_i001
#       Creating user name   aseyller
#       Creation time:       Fri Apr 21 17:38:35 2023


#       File generated by GOLD software.
#

@<TRIPOS>MOLECULE
EN300-45541_i001|benzaldehydes|mol2|307|dock11
    23    24     1
SMALL
USER_CHARGES


@<TRIPOS>ATOM
      1 C1          28.5028  36.3314  41.9434 C.3            1 <1>                0.0000
      2 C2          28.1697  35.5000  40.7029 C.3            1 <1>                0.0000
      3 N3          28.2195  36.3549  39.5143 N.pl3          1 <1>                0.0000
      4 C4          27.1671  37.0320  38.9516 C.2            1 <1>                0.0000
      5 C5          25.7832  37.0161  39.4534 C.2            1 <1>                0.0000
      6 O6          25.5621  36.7422  40.6136 O.2            1 <1>                0.0000
      7 N7          27.5811  37.6953  37.8991 N.2            1 <1>                0.0000
      8 C8          28.8966  37.4914  37.7221 C.ar           1 <1>                0.0000
      9 C9          29.8235  37.9494  36.7741 C.ar           1 <1>                0.0000
     10 C10         31.1277  37.5601  36.8564 C.ar           1 <1>                0.0000
     11 C11         31.5537  36.7115  37.8714 C.ar           1 <1>                0.0000
     12 C12         30.6644  36.2472  38.8150 C.ar           1 <1>                0.0000
     13 C13         29.3310  36.6354  38.7550 C.ar           1 <1>                0.0000
     14 H14         28.4658  35.6952  42.8278 H              1 <1>                0.0000
     15 H15         29.5027  36.7529  41.8406 H              1 <1>                0.0000
     16 H16         27.7771  37.1382  42.0456 H              1 <1>                0.0000
     17 H17         28.8955  34.6931  40.6007 H              1 <1>                0.0000
     18 H18         27.1699  35.0785  40.8057 H              1 <1>                0.0000
     19 H19         24.9648  37.2484  38.7880 H              1 <1>                0.0000
     20 H20         29.5047  38.6089  35.9804 H              1 <1>                0.0000
     21 H21         31.8378  37.9149  36.1241 H              1 <1>                0.0000
     22 H22         32.5906  36.4135  37.9205 H              1 <1>                0.0000
     23 H23         31.0025  35.5878  39.6007 H              1 <1>                0.0000
@<TRIPOS>BOND
    1    1    2 1     
    2    1   14 1     
    3    1   15 1     
    4    1   16 1     
    5    2    3 1     
    6    2   17 1     
    7    2   18 1     
    8    3    4 1     
    9    3   13 1     
   10    4    5 1     
   11    4    7 2     
   12    5    6 2     
   13    5   19 1     
   14    7    8 1     
   15    8    9 ar    
   16    8   13 ar    
   17    9   10 ar    
   18    9   20 1     
   19   10   11 ar    
   20   10   21 1     
   21   11   12 ar    
   22   11   22 1     
   23   12   13 ar    
   24   12   23 1     
@<TRIPOS>SUBSTRUCTURE
      1 ****           1
@<TRIPOS>COMMENT
> <Gold.Version>
2022.2.0

> <Gold.Id.Protein>
1qkm|1qkm_protein|mol2

> <Gold.Protein.RotatedTorsions>
[  496  491  490  487 ] final  114.77 input  -89.99 | X-H torsion

> <Gold.Protein.ActiveResidues>
 MET295  LEU298  THR299  LEU301  ALA302  GLU305  TRP335  MET336  LEU339  MET340 
 GLY342  LEU343  ARG346  PHE356  ILE373  ILE376  PHE377  LEU380  LYS471  GLY472 
 MET473  HIS475  LEU476  LEU477  ASN478  MET479  VAL484  VAL487 

> <Gold.Protein.RotatedAtoms>
   37.0390   32.9395   41.6941 H   0  0  0  0  0  0  0  0  0  0  0  0  # atno 496  bound_to 491 

> <Gold.Score>
     Score     S(PLP)   S(hbond)     S(cho)   S(metal)  DE(clash)   DE(tors)     intcor
     43.32     -44.28       0.00       0.00       0.00       0.00       0.48       0.00

> <Gold.PLP.Fitness>
43.3152

> <Gold.PLP.PLP>
-44.2778

> <Gold.PLP.part.hbond>
0.0000

> <Gold.PLP.part.metal>
0.0000

> <Gold.PLP.part.buried>
-3.8415

> <Gold.PLP.part.nonpolar>
-40.7167

> <Gold.PLP.part.repulsive>
0.1575

> <Gold.PLP.ligand.clash>
0.0000

> <Gold.PLP.ligand.torsion>
0.4815

> <Gold.PLP.Chemscore.Hbond>
0.0000

> <Gold.PLP.Chemscore.CHOScore>
0.0000

> <Gold.PLP.Chemscore.Metal>
0.0000

> <Gold.PLP.Chemscore.Internal.Correction>
0.0003

