#       Name:                EN300-45541_i001
#       Creating user name   aseyller
#       Creation time:       Fri Apr 21 17:38:37 2023


#       File generated by GOLD software.
#

@<TRIPOS>MOLECULE
EN300-45541_i001|benzaldehydes|mol2|307|dock15
    23    24     1
SMALL
USER_CHARGES


@<TRIPOS>ATOM
      1 C1          32.2390  37.5578  34.4883 C.3            1 <1>                0.0000
      2 C2          32.2753  38.4271  35.7469 C.3            1 <1>                0.0000
      3 N3          31.3877  37.8543  36.7618 N.pl3          1 <1>                0.0000
      4 C4          30.2980  38.4641  37.3306 C.2            1 <1>                0.0000
      5 C5          29.8248  39.8217  37.0139 C.2            1 <1>                0.0000
      6 O6          30.3249  40.4400  36.0987 O.2            1 <1>                0.0000
      7 N7          29.7422  37.6541  38.1989 N.2            1 <1>                0.0000
      8 C8          30.4239  36.4979  38.2428 C.ar           1 <1>                0.0000
      9 C9          30.2672  35.3145  38.9793 C.ar           1 <1>                0.0000
     10 C10         31.1415  34.2832  38.8017 C.ar           1 <1>                0.0000
     11 C11         32.1910  34.3888  37.8965 C.ar           1 <1>                0.0000
     12 C12         32.3676  35.5395  37.1606 C.ar           1 <1>                0.0000
     13 C13         31.4854  36.6017  37.3203 C.ar           1 <1>                0.0000
     14 H14         32.8995  37.9840  33.7332 H              1 <1>                0.0000
     15 H15         32.5709  36.5490  34.7338 H              1 <1>                0.0000
     16 H16         31.2207  37.5213  34.1014 H              1 <1>                0.0000
     17 H17         33.2937  38.4638  36.1339 H              1 <1>                0.0000
     18 H18         31.9434  39.4359  35.5014 H              1 <1>                0.0000
     19 H19         29.0321  40.2669  37.5969 H              1 <1>                0.0000
     20 H20         29.4559  35.2204  39.6860 H              1 <1>                0.0000
     21 H21         31.0172  33.3741  39.3712 H              1 <1>                0.0000
     22 H22         32.8737  33.5617  37.7693 H              1 <1>                0.0000
     23 H23         33.1855  35.6145  36.4593 H              1 <1>                0.0000
@<TRIPOS>BOND
    1    1    2 1     
    2    1   14 1     
    3    1   15 1     
    4    1   16 1     
    5    2    3 1     
    6    2   17 1     
    7    2   18 1     
    8    3    4 1     
    9    3   13 1     
   10    4    5 1     
   11    4    7 2     
   12    5    6 2     
   13    5   19 1     
   14    7    8 1     
   15    8    9 ar    
   16    8   13 ar    
   17    9   10 ar    
   18    9   20 1     
   19   10   11 ar    
   20   10   21 1     
   21   11   12 ar    
   22   11   22 1     
   23   12   13 ar    
   24   12   23 1     
@<TRIPOS>SUBSTRUCTURE
      1 ****           1
@<TRIPOS>COMMENT
> <Gold.Version>
2022.2.0

> <Gold.Id.Protein>
1qkm|1qkm_protein|mol2

> <Gold.Protein.RotatedTorsions>
[  496  491  490  487 ] final  -86.71 input  -89.99 | X-H torsion

> <Gold.Protein.ActiveResidues>
 MET295  LEU298  THR299  LEU301  ALA302  GLU305  TRP335  MET336  LEU339  MET340 
 GLY342  LEU343  ARG346  PHE356  ILE373  ILE376  PHE377  LEU380  LYS471  GLY472 
 MET473  HIS475  LEU476  LEU477  ASN478  MET479  VAL484  VAL487 

> <Gold.Protein.RotatedAtoms>
   36.7270   34.6735   41.1193 H   0  0  0  0  0  0  0  0  0  0  0  0  # atno 496  bound_to 491 

> <Gold.Score>
     Score     S(PLP)   S(hbond)     S(cho)   S(metal)  DE(clash)   DE(tors)     intcor
     42.63     -42.65       0.00       0.00       0.00       0.00       0.01       0.00

> <Gold.PLP.Fitness>
42.6294

> <Gold.PLP.PLP>
-42.6547

> <Gold.PLP.part.hbond>
0.0000

> <Gold.PLP.part.metal>
0.0000

> <Gold.PLP.part.buried>
-3.2945

> <Gold.PLP.part.nonpolar>
-39.7982

> <Gold.PLP.part.repulsive>
0.0000

> <Gold.PLP.ligand.clash>
0.0000

> <Gold.PLP.ligand.torsion>
0.0128

> <Gold.PLP.Chemscore.Hbond>
0.0000

> <Gold.PLP.Chemscore.CHOScore>
0.0000

> <Gold.PLP.Chemscore.Metal>
0.0000

> <Gold.PLP.Chemscore.Internal.Correction>
0.0003

