#       Name:                EN300-45541_i001
#       Creating user name   aseyller
#       Creation time:       Fri Apr 21 17:38:36 2023


#       File generated by GOLD software.
#

@<TRIPOS>MOLECULE
EN300-45541_i001|benzaldehydes|mol2|307|dock13
    23    24     1
SMALL
USER_CHARGES


@<TRIPOS>ATOM
      1 C1          31.5176  35.8270  37.8538 C.3            1 <1>                0.0000
      2 C2          31.1470  37.3088  37.9417 C.3            1 <1>                0.0000
      3 N3          29.6911  37.4435  38.0336 N.pl3          1 <1>                0.0000
      4 C4          28.8890  38.2030  37.2196 C.2            1 <1>                0.0000
      5 C5          29.3607  39.0274  36.0948 C.2            1 <1>                0.0000
      6 O6          30.5152  38.9541  35.7318 O.2            1 <1>                0.0000
      7 N7          27.6388  38.0831  37.5957 N.2            1 <1>                0.0000
      8 C8          27.5592  37.2575  38.6518 C.ar           1 <1>                0.0000
      9 C9          26.4906  36.7909  39.4316 C.ar           1 <1>                0.0000
     10 C10         26.7279  35.9357  40.4668 C.ar           1 <1>                0.0000
     11 C11         28.0204  35.5177  40.7617 C.ar           1 <1>                0.0000
     12 C12         29.0874  35.9606  40.0120 C.ar           1 <1>                0.0000
     13 C13         28.8692  36.8281  38.9481 C.ar           1 <1>                0.0000
     14 H14         32.6009  35.7268  37.7856 H              1 <1>                0.0000
     15 H15         31.1602  35.3097  38.7442 H              1 <1>                0.0000
     16 H16         31.0557  35.3889  36.9690 H              1 <1>                0.0000
     17 H17         31.6089  37.7470  38.8266 H              1 <1>                0.0000
     18 H18         31.5043  37.8262  37.0514 H              1 <1>                0.0000
     19 H19         28.6783  39.6973  35.5929 H              1 <1>                0.0000
     20 H20         25.4819  37.1087  39.2127 H              1 <1>                0.0000
     21 H21         25.9022  35.5794  41.0647 H              1 <1>                0.0000
     22 H22         28.1892  34.8403  41.5856 H              1 <1>                0.0000
     23 H23         30.0889  35.6318  40.2472 H              1 <1>                0.0000
@<TRIPOS>BOND
    1    1    2 1     
    2    1   14 1     
    3    1   15 1     
    4    1   16 1     
    5    2    3 1     
    6    2   17 1     
    7    2   18 1     
    8    3    4 1     
    9    3   13 1     
   10    4    5 1     
   11    4    7 2     
   12    5    6 2     
   13    5   19 1     
   14    7    8 1     
   15    8    9 ar    
   16    8   13 ar    
   17    9   10 ar    
   18    9   20 1     
   19   10   11 ar    
   20   10   21 1     
   21   11   12 ar    
   22   11   22 1     
   23   12   13 ar    
   24   12   23 1     
@<TRIPOS>SUBSTRUCTURE
      1 ****           1
@<TRIPOS>COMMENT
> <Gold.Version>
2022.2.0

> <Gold.Id.Protein>
1qkm|1qkm_protein|mol2

> <Gold.Protein.RotatedTorsions>
[  496  491  490  487 ] final  -71.78 input  -89.99 | X-H torsion

> <Gold.Protein.ActiveResidues>
 MET295  LEU298  THR299  LEU301  ALA302  GLU305  TRP335  MET336  LEU339  MET340 
 GLY342  LEU343  ARG346  PHE356  ILE373  ILE376  PHE377  LEU380  LYS471  GLY472 
 MET473  HIS475  LEU476  LEU477  ASN478  MET479  VAL484  VAL487 

> <Gold.Protein.RotatedAtoms>
   36.5934   34.7300   41.3170 H   0  0  0  0  0  0  0  0  0  0  0  0  # atno 496  bound_to 491 

> <Gold.Score>
     Score     S(PLP)   S(hbond)     S(cho)   S(metal)  DE(clash)   DE(tors)     intcor
     42.66     -42.76       0.00       0.00       0.00       0.00       0.05       0.00

> <Gold.PLP.Fitness>
42.6592

> <Gold.PLP.PLP>
-42.7650

> <Gold.PLP.part.hbond>
0.0000

> <Gold.PLP.part.metal>
0.0000

> <Gold.PLP.part.buried>
-3.0051

> <Gold.PLP.part.nonpolar>
-39.8709

> <Gold.PLP.part.repulsive>
0.0000

> <Gold.PLP.ligand.clash>
0.0000

> <Gold.PLP.ligand.torsion>
0.0530

> <Gold.PLP.Chemscore.Hbond>
0.0000

> <Gold.PLP.Chemscore.CHOScore>
0.0000

> <Gold.PLP.Chemscore.Metal>
0.0000

> <Gold.PLP.Chemscore.Internal.Correction>
0.0003

