#       Name:                EN300-45541_i001
#       Creating user name   aseyller
#       Creation time:       Fri Apr 21 17:38:35 2023


#       File generated by GOLD software.
#

@<TRIPOS>MOLECULE
EN300-45541_i001|benzaldehydes|mol2|307|dock10
    23    24     1
SMALL
USER_CHARGES


@<TRIPOS>ATOM
      1 C1          28.4759  36.4975  41.6792 C.3            1 <1>                0.0000
      2 C2          28.7069  35.5060  40.5370 C.3            1 <1>                0.0000
      3 N3          28.9820  36.2413  39.3002 N.pl3          1 <1>                0.0000
      4 C4          28.1026  37.0392  38.6125 C.2            1 <1>                0.0000
      5 C5          26.7078  37.2984  39.0053 C.2            1 <1>                0.0000
      6 O6          26.2359  36.7384  39.9717 O.2            1 <1>                0.0000
      7 N7          28.6933  37.5356  37.5525 N.2            1 <1>                0.0000
      8 C8          29.9616  37.0983  37.4925 C.ar           1 <1>                0.0000
      9 C9          31.0136  37.3147  36.5902 C.ar           1 <1>                0.0000
     10 C10         32.2216  36.7181  36.7998 C.ar           1 <1>                0.0000
     11 C11         32.4263  35.8943  37.9005 C.ar           1 <1>                0.0000
     12 C12         31.4104  35.6651  38.8017 C.ar           1 <1>                0.0000
     13 C13         30.1721  36.2673  38.6120 C.ar           1 <1>                0.0000
     14 H14         28.2712  35.9503  42.5995 H              1 <1>                0.0000
     15 H15         29.3661  37.1123  41.8123 H              1 <1>                0.0000
     16 H16         27.6257  37.1361  41.4395 H              1 <1>                0.0000
     17 H17         29.5571  34.8673  40.7767 H              1 <1>                0.0000
     18 H18         27.8168  34.8912  40.4039 H              1 <1>                0.0000
     19 H19         26.1047  37.9875  38.4328 H              1 <1>                0.0000
     20 H20         30.8669  37.9524  35.7309 H              1 <1>                0.0000
     21 H21         33.0286  36.8872  36.1022 H              1 <1>                0.0000
     22 H22         33.3898  35.4300  38.0501 H              1 <1>                0.0000
     23 H23         31.5767  35.0236  39.6545 H              1 <1>                0.0000
@<TRIPOS>BOND
    1    1    2 1     
    2    1   14 1     
    3    1   15 1     
    4    1   16 1     
    5    2    3 1     
    6    2   17 1     
    7    2   18 1     
    8    3    4 1     
    9    3   13 1     
   10    4    5 1     
   11    4    7 2     
   12    5    6 2     
   13    5   19 1     
   14    7    8 1     
   15    8    9 ar    
   16    8   13 ar    
   17    9   10 ar    
   18    9   20 1     
   19   10   11 ar    
   20   10   21 1     
   21   11   12 ar    
   22   11   22 1     
   23   12   13 ar    
   24   12   23 1     
@<TRIPOS>SUBSTRUCTURE
      1 ****           1
@<TRIPOS>COMMENT
> <Gold.Version>
2022.2.0

> <Gold.Id.Protein>
1qkm|1qkm_protein|mol2

> <Gold.Protein.RotatedTorsions>
[  496  491  490  487 ] final   20.38 input  -89.99 | X-H torsion

> <Gold.Protein.ActiveResidues>
 MET295  LEU298  THR299  LEU301  ALA302  GLU305  TRP335  MET336  LEU339  MET340 
 GLY342  LEU343  ARG346  PHE356  ILE373  ILE376  PHE377  LEU380  LYS471  GLY472 
 MET473  HIS475  LEU476  LEU477  ASN478  MET479  VAL484  VAL487 

> <Gold.Protein.RotatedAtoms>
   36.3038   33.9060   42.3577 H   0  0  0  0  0  0  0  0  0  0  0  0  # atno 496  bound_to 491 

> <Gold.Score>
     Score     S(PLP)   S(hbond)     S(cho)   S(metal)  DE(clash)   DE(tors)     intcor
     43.18     -43.28       0.00       0.00       0.00       0.00       0.05       0.00

> <Gold.PLP.Fitness>
43.1841

> <Gold.PLP.PLP>
-43.2844

> <Gold.PLP.part.hbond>
0.0000

> <Gold.PLP.part.metal>
0.0000

> <Gold.PLP.part.buried>
-3.4509

> <Gold.PLP.part.nonpolar>
-40.1920

> <Gold.PLP.part.repulsive>
0.0930

> <Gold.PLP.ligand.clash>
0.0000

> <Gold.PLP.ligand.torsion>
0.0503

> <Gold.PLP.Chemscore.Hbond>
0.0000

> <Gold.PLP.Chemscore.CHOScore>
0.0000

> <Gold.PLP.Chemscore.Metal>
0.0000

> <Gold.PLP.Chemscore.Internal.Correction>
0.0003

