#       Name:                EN300-45541_i001
#       Creating user name   aseyller
#       Creation time:       Fri Apr 21 17:38:39 2023


#       File generated by GOLD software.
#

@<TRIPOS>MOLECULE
EN300-45541_i001|benzaldehydes|mol2|307|dock19
    23    24     1
SMALL
USER_CHARGES


@<TRIPOS>ATOM
      1 C1          31.7548  34.4549  38.2400 C.3            1 <1>                0.0000
      2 C2          32.0302  35.9593  38.1964 C.3            1 <1>                0.0000
      3 N3          30.8293  36.6626  37.7389 N.pl3          1 <1>                0.0000
      4 C4          30.7313  37.4812  36.6421 C.2            1 <1>                0.0000
      5 C5          31.8341  37.7993  35.7202 C.2            1 <1>                0.0000
      6 O6          31.6133  38.4189  34.7017 O.2            1 <1>                0.0000
      7 N7          29.5063  37.9370  36.5397 N.2            1 <1>                0.0000
      8 C8          28.7556  37.4515  37.5418 C.ar           1 <1>                0.0000
      9 C9          27.4094  37.6119  37.9021 C.ar           1 <1>                0.0000
     10 C10         26.9203  36.9730  39.0029 C.ar           1 <1>                0.0000
     11 C11         27.7410  36.1608  39.7769 C.ar           1 <1>                0.0000
     12 C12         29.0663  35.9862  39.4454 C.ar           1 <1>                0.0000
     13 C13         29.5857  36.6227  38.3241 C.ar           1 <1>                0.0000
     14 H14         32.6483  33.9316  38.5804 H              1 <1>                0.0000
     15 H15         30.9328  34.2558  38.9277 H              1 <1>                0.0000
     16 H16         31.4869  34.1056  37.2428 H              1 <1>                0.0000
     17 H17         32.2981  36.3086  39.1936 H              1 <1>                0.0000
     18 H18         32.8521  36.1584  37.5088 H              1 <1>                0.0000
     19 H19         32.8398  37.4806  35.9512 H              1 <1>                0.0000
     20 H20         26.7617  38.2406  37.3090 H              1 <1>                0.0000
     21 H21         25.8833  37.0997  39.2768 H              1 <1>                0.0000
     22 H22         27.3361  35.6629  40.6455 H              1 <1>                0.0000
     23 H23         29.6981  35.3540  40.0516 H              1 <1>                0.0000
@<TRIPOS>BOND
    1    1    2 1     
    2    1   14 1     
    3    1   15 1     
    4    1   16 1     
    5    2    3 1     
    6    2   17 1     
    7    2   18 1     
    8    3    4 1     
    9    3   13 1     
   10    4    5 1     
   11    4    7 2     
   12    5    6 2     
   13    5   19 1     
   14    7    8 1     
   15    8    9 ar    
   16    8   13 ar    
   17    9   10 ar    
   18    9   20 1     
   19   10   11 ar    
   20   10   21 1     
   21   11   12 ar    
   22   11   22 1     
   23   12   13 ar    
   24   12   23 1     
@<TRIPOS>SUBSTRUCTURE
      1 ****           1
@<TRIPOS>COMMENT
> <Gold.Version>
2022.2.0

> <Gold.Id.Protein>
1qkm|1qkm_protein|mol2

> <Gold.Protein.RotatedTorsions>
[  496  491  490  487 ] final  108.04 input  -89.99 | X-H torsion

> <Gold.Protein.ActiveResidues>
 MET295  LEU298  THR299  LEU301  ALA302  GLU305  TRP335  MET336  LEU339  MET340 
 GLY342  LEU343  ARG346  PHE356  ILE373  ILE376  PHE377  LEU380  LYS471  GLY472 
 MET473  HIS475  LEU476  LEU477  ASN478  MET479  VAL484  VAL487 

> <Gold.Protein.RotatedAtoms>
   36.9826   32.9456   41.7890 H   0  0  0  0  0  0  0  0  0  0  0  0  # atno 496  bound_to 491 

> <Gold.Score>
     Score     S(PLP)   S(hbond)     S(cho)   S(metal)  DE(clash)   DE(tors)     intcor
     40.96     -40.99       0.00       0.00       0.00       0.00       0.02       0.00

> <Gold.PLP.Fitness>
40.9579

> <Gold.PLP.PLP>
-40.9922

> <Gold.PLP.part.hbond>
0.0000

> <Gold.PLP.part.metal>
0.0000

> <Gold.PLP.part.buried>
-3.0422

> <Gold.PLP.part.nonpolar>
-38.0513

> <Gold.PLP.part.repulsive>
0.0746

> <Gold.PLP.ligand.clash>
0.0000

> <Gold.PLP.ligand.torsion>
0.0173

> <Gold.PLP.Chemscore.Hbond>
0.0000

> <Gold.PLP.Chemscore.CHOScore>
0.0000

> <Gold.PLP.Chemscore.Metal>
0.0000

> <Gold.PLP.Chemscore.Internal.Correction>
0.0003

