#       Name:                EN300-45541_i001
#       Creating user name   aseyller
#       Creation time:       Fri Apr 21 17:38:36 2023


#       File generated by GOLD software.
#

@<TRIPOS>MOLECULE
EN300-45541_i001|benzaldehydes|mol2|307|dock14
    23    24     1
SMALL
USER_CHARGES


@<TRIPOS>ATOM
      1 C1          32.1431  35.5820  37.2203 C.3            1 <1>                0.0000
      2 C2          31.5143  36.1029  38.5142 C.3            1 <1>                0.0000
      3 N3          30.2457  36.7682  38.2074 N.pl3          1 <1>                0.0000
      4 C4          30.0572  37.7941  37.3158 C.2            1 <1>                0.0000
      5 C5          31.1146  38.4135  36.5001 C.2            1 <1>                0.0000
      6 O6          30.8380  39.3002  35.7208 O.2            1 <1>                0.0000
      7 N7          28.7924  38.1388  37.3007 N.2            1 <1>                0.0000
      8 C8          28.1026  37.3738  38.1623 C.ar           1 <1>                0.0000
      9 C9          26.7507  37.3182  38.5323 C.ar           1 <1>                0.0000
     10 C10         26.3373  36.4082  39.4598 C.ar           1 <1>                0.0000
     11 C11         27.2412  35.5305  40.0468 C.ar           1 <1>                0.0000
     12 C12         28.5740  35.5638  39.7016 C.ar           1 <1>                0.0000
     13 C13         29.0177  36.4789  38.7539 C.ar           1 <1>                0.0000
     14 H14         33.0870  35.0869  37.4486 H              1 <1>                0.0000
     15 H15         31.4652  34.8715  36.7472 H              1 <1>                0.0000
     16 H16         32.3251  36.4166  36.5432 H              1 <1>                0.0000
     17 H17         31.3323  35.2683  39.1914 H              1 <1>                0.0000
     18 H18         32.1921  36.8133  38.9872 H              1 <1>                0.0000
     19 H19         32.1367  38.0780  36.5957 H              1 <1>                0.0000
     20 H20         26.0387  37.9952  38.0837 H              1 <1>                0.0000
     21 H21         25.2955  36.3693  39.7419 H              1 <1>                0.0000
     22 H22         26.8956  34.8166  40.7798 H              1 <1>                0.0000
     23 H23         29.2707  34.8790  40.1620 H              1 <1>                0.0000
@<TRIPOS>BOND
    1    1    2 1     
    2    1   14 1     
    3    1   15 1     
    4    1   16 1     
    5    2    3 1     
    6    2   17 1     
    7    2   18 1     
    8    3    4 1     
    9    3   13 1     
   10    4    5 1     
   11    4    7 2     
   12    5    6 2     
   13    5   19 1     
   14    7    8 1     
   15    8    9 ar    
   16    8   13 ar    
   17    9   10 ar    
   18    9   20 1     
   19   10   11 ar    
   20   10   21 1     
   21   11   12 ar    
   22   11   22 1     
   23   12   13 ar    
   24   12   23 1     
@<TRIPOS>SUBSTRUCTURE
      1 ****           1
@<TRIPOS>COMMENT
> <Gold.Version>
2022.2.0

> <Gold.Id.Protein>
1qkm|1qkm_protein|mol2

> <Gold.Protein.RotatedTorsions>
[  496  491  490  487 ] final -112.52 input  -89.99 | X-H torsion

> <Gold.Protein.ActiveResidues>
 MET295  LEU298  THR299  LEU301  ALA302  GLU305  TRP335  MET336  LEU339  MET340 
 GLY342  LEU343  ARG346  PHE356  ILE373  ILE376  PHE377  LEU380  LYS471  GLY472 
 MET473  HIS475  LEU476  LEU477  ASN478  MET479  VAL484  VAL487 

> <Gold.Protein.RotatedAtoms>
   36.9624   34.4471   40.8532 H   0  0  0  0  0  0  0  0  0  0  0  0  # atno 496  bound_to 491 

> <Gold.Score>
     Score     S(PLP)   S(hbond)     S(cho)   S(metal)  DE(clash)   DE(tors)     intcor
     41.86     -41.91       0.00       0.00       0.00       0.00       0.03       0.00

> <Gold.PLP.Fitness>
41.8598

> <Gold.PLP.PLP>
-41.9121

> <Gold.PLP.part.hbond>
0.0000

> <Gold.PLP.part.metal>
0.0000

> <Gold.PLP.part.buried>
-3.3086

> <Gold.PLP.part.nonpolar>
-39.1392

> <Gold.PLP.part.repulsive>
0.0000

> <Gold.PLP.ligand.clash>
0.0000

> <Gold.PLP.ligand.torsion>
0.0263

> <Gold.PLP.Chemscore.Hbond>
0.0000

> <Gold.PLP.Chemscore.CHOScore>
0.0000

> <Gold.PLP.Chemscore.Metal>
0.0000

> <Gold.PLP.Chemscore.Internal.Correction>
0.0003

