#       Name:                EN300-45541_i001
#       Creating user name   aseyller
#       Creation time:       Fri Apr 21 17:38:32 2023


#       File generated by GOLD software.
#

@<TRIPOS>MOLECULE
EN300-45541_i001|benzaldehydes|mol2|307|dock4
    23    24     1
SMALL
USER_CHARGES


@<TRIPOS>ATOM
      1 C1          29.6350  39.2171  37.3041 C.3            1 <1>                0.0000
      2 C2          29.6213  37.7272  36.9564 C.3            1 <1>                0.0000
      3 N3          29.2540  36.9519  38.1439 N.pl3          1 <1>                0.0000
      4 C4          30.0712  36.1070  38.8517 C.2            1 <1>                0.0000
      5 C5          31.4817  35.8290  38.5348 C.2            1 <1>                0.0000
      6 O6          32.0023  36.3548  37.5743 O.2            1 <1>                0.0000
      7 N7          29.4052  35.5849  39.8531 N.2            1 <1>                0.0000
      8 C8          28.1455  36.0503  39.8528 C.ar           1 <1>                0.0000
      9 C9          27.0355  35.8262  40.6806 C.ar           1 <1>                0.0000
     10 C10         25.8565  36.4608  40.4223 C.ar           1 <1>                0.0000
     11 C11         25.7387  37.3310  39.3448 C.ar           1 <1>                0.0000
     12 C12         26.8129  37.5688  38.5164 C.ar           1 <1>                0.0000
     13 C13         28.0266  36.9379  38.7636 C.ar           1 <1>                0.0000
     14 H14         29.9083  39.7939  36.4205 H              1 <1>                0.0000
     15 H15         28.6446  39.5200  37.6438 H              1 <1>                0.0000
     16 H16         30.3620  39.3987  38.0957 H              1 <1>                0.0000
     17 H17         28.8943  37.5455  36.1648 H              1 <1>                0.0000
     18 H18         30.6117  37.4242  36.6168 H              1 <1>                0.0000
     19 H19         32.0528  35.1568  39.1579 H              1 <1>                0.0000
     20 H20         27.1144  35.1521  41.5208 H              1 <1>                0.0000
     21 H21         25.0044  36.2849  41.0620 H              1 <1>                0.0000
     22 H22         24.7969  37.8244  39.1555 H              1 <1>                0.0000
     23 H23         26.7139  38.2459  37.6809 H              1 <1>                0.0000
@<TRIPOS>BOND
    1    1    2 1     
    2    1   14 1     
    3    1   15 1     
    4    1   16 1     
    5    2    3 1     
    6    2   17 1     
    7    2   18 1     
    8    3    4 1     
    9    3   13 1     
   10    4    5 1     
   11    4    7 2     
   12    5    6 2     
   13    5   19 1     
   14    7    8 1     
   15    8    9 ar    
   16    8   13 ar    
   17    9   10 ar    
   18    9   20 1     
   19   10   11 ar    
   20   10   21 1     
   21   11   12 ar    
   22   11   22 1     
   23   12   13 ar    
   24   12   23 1     
@<TRIPOS>SUBSTRUCTURE
      1 ****           1
@<TRIPOS>COMMENT
> <Gold.Version>
2022.2.0

> <Gold.Id.Protein>
1qkm|1qkm_protein|mol2

> <Gold.Protein.RotatedTorsions>
[  496  491  490  487 ] final   20.95 input  -89.99 | X-H torsion

> <Gold.Protein.ActiveResidues>
 MET295  LEU298  THR299  LEU301  ALA302  GLU305  TRP335  MET336  LEU339  MET340 
 GLY342  LEU343  ARG346  PHE356  ILE373  ILE376  PHE377  LEU380  LYS471  GLY472 
 MET473  HIS475  LEU476  LEU477  ASN478  MET479  VAL484  VAL487 

> <Gold.Protein.RotatedAtoms>
   36.3060   33.8971   42.3598 H   0  0  0  0  0  0  0  0  0  0  0  0  # atno 496  bound_to 491 

> <Gold.Score>
     Score     S(PLP)   S(hbond)     S(cho)   S(metal)  DE(clash)   DE(tors)     intcor
     45.80     -45.93       0.00       0.00       0.00       0.00       0.07       0.00

> <Gold.PLP.Fitness>
45.8024

> <Gold.PLP.PLP>
-45.9343

> <Gold.PLP.part.hbond>
0.0000

> <Gold.PLP.part.metal>
0.0000

> <Gold.PLP.part.buried>
-3.6926

> <Gold.PLP.part.nonpolar>
-42.7964

> <Gold.PLP.part.repulsive>
0.1054

> <Gold.PLP.ligand.clash>
0.0000

> <Gold.PLP.ligand.torsion>
0.0661

> <Gold.PLP.Chemscore.Hbond>
0.0000

> <Gold.PLP.Chemscore.CHOScore>
0.0000

> <Gold.PLP.Chemscore.Metal>
0.0000

> <Gold.PLP.Chemscore.Internal.Correction>
0.0003

