#       Name:                EN300-45541_i001
#       Creating user name   aseyller
#       Creation time:       Fri Apr 21 17:38:30 2023


#       File generated by GOLD software.
#

@<TRIPOS>MOLECULE
EN300-45541_i001
    23    24     1
SMALL
USER_CHARGES


@<TRIPOS>ATOM
      1 C1          -1.6022   2.1348   0.7765 C.3            1 <1>                0.0000
      2 C2          -1.3270   1.4377  -0.5574 C.3            1 <1>                0.0000
      3 N3          -0.7162   0.1297  -0.3080 N.pl3          1 <1>                0.0000
      4 C4          -1.3776  -1.0600  -0.1351 C.2            1 <1>                0.0000
      5 C5          -2.8394  -1.2304  -0.1710 C.2            1 <1>                0.0000
      6 O6          -3.3260  -2.3286  -0.0059 O.2            1 <1>                0.0000
      7 N7          -0.5100  -2.0220   0.0669 N.2            1 <1>                0.0000
      8 C8           0.7365  -1.5232   0.0375 C.ar           1 <1>                0.0000
      9 C9           2.0075  -2.0966   0.1907 C.ar           1 <1>                0.0000
     10 C10          3.1205  -1.3134   0.1063 C.ar           1 <1>                0.0000
     11 C11          3.0128   0.0520  -0.1306 C.ar           1 <1>                0.0000
     12 C12          1.7771   0.6403  -0.2848 C.ar           1 <1>                0.0000
     13 C13          0.6286  -0.1390  -0.2088 C.ar           1 <1>                0.0000
     14 H14         -2.0567   3.1080   0.5909 H              1 <1>                0.0000
     15 H15         -2.2809   1.5244   1.3722 H              1 <1>                0.0000
     16 H16         -0.6649   2.2686   1.3166 H              1 <1>                0.0000
     17 H17         -2.2643   1.3039  -1.0976 H              1 <1>                0.0000
     18 H18         -0.6483   2.0480  -1.1531 H              1 <1>                0.0000
     19 H19         -3.4784  -0.3772  -0.3444 H              1 <1>                0.0000
     20 H20          2.1043  -3.1563   0.3755 H              1 <1>                0.0000
     21 H21          4.0970  -1.7591   0.2253 H              1 <1>                0.0000
     22 H22          3.9054   0.6566  -0.1940 H              1 <1>                0.0000
     23 H23          1.7011   1.7019  -0.4683 H              1 <1>                0.0000
@<TRIPOS>BOND
    1    1    2 1     
    2    1   14 1     
    3    1   15 1     
    4    1   16 1     
    5    2    3 1     
    6    2   17 1     
    7    2   18 1     
    8    3    4 1     
    9    3   13 1     
   10    4    5 1     
   11    4    7 2     
   12    5    6 2     
   13    5   19 1     
   14    7    8 1     
   15    8    9 ar    
   16    8   13 ar    
   17    9   10 ar    
   18    9   20 1     
   19   10   11 ar    
   20   10   21 1     
   21   11   12 ar    
   22   11   22 1     
   23   12   13 ar    
   24   12   23 1     
@<TRIPOS>SUBSTRUCTURE
      1 ****           1
