#       Name:                EN300-45541_i001
#       Creating user name   aseyller
#       Creation time:       Fri Apr 21 17:38:38 2023


#       File generated by GOLD software.
#

@<TRIPOS>MOLECULE
EN300-45541_i001|benzaldehydes|mol2|307|dock18
    23    24     1
SMALL
USER_CHARGES


@<TRIPOS>ATOM
      1 C1          29.7826  39.8047  36.9964 C.3            1 <1>                0.0000
      2 C2          29.0510  38.4976  37.3079 C.3            1 <1>                0.0000
      3 N3          30.0248  37.4722  37.6909 N.pl3          1 <1>                0.0000
      4 C4          30.0213  36.7355  38.8484 C.2            1 <1>                0.0000
      5 C5          29.0219  36.8499  39.9232 C.2            1 <1>                0.0000
      6 O6          29.0786  36.1135  40.8848 O.2            1 <1>                0.0000
      7 N7          31.0432  35.9141  38.8518 N.2            1 <1>                0.0000
      8 C8          31.7529  36.0670  37.7221 C.ar           1 <1>                0.0000
      9 C9          32.9124  35.4558  37.2225 C.ar           1 <1>                0.0000
     10 C10         33.4094  35.8314  36.0096 C.ar           1 <1>                0.0000
     11 C11         32.7800  36.8164  35.2574 C.ar           1 <1>                0.0000
     12 C12         31.6403  37.4325  35.7245 C.ar           1 <1>                0.0000
     13 C13         31.1118  37.0619  36.9556 C.ar           1 <1>                0.0000
     14 H14         29.0581  40.5676  36.7115 H              1 <1>                0.0000
     15 H15         30.3293  40.1346  37.8798 H              1 <1>                0.0000
     16 H16         30.4817  39.6431  36.1758 H              1 <1>                0.0000
     17 H17         28.3519  38.6591  38.1285 H              1 <1>                0.0000
     18 H18         28.5044  38.1677  36.4246 H              1 <1>                0.0000
     19 H19         28.2382  37.5899  39.8553 H              1 <1>                0.0000
     20 H20         33.4107  34.6893  37.7976 H              1 <1>                0.0000
     21 H21         34.3026  35.3583  35.6291 H              1 <1>                0.0000
     22 H22         33.1883  37.1011  34.2990 H              1 <1>                0.0000
     23 H23         31.1569  38.1973  35.1348 H              1 <1>                0.0000
@<TRIPOS>BOND
    1    1    2 1     
    2    1   14 1     
    3    1   15 1     
    4    1   16 1     
    5    2    3 1     
    6    2   17 1     
    7    2   18 1     
    8    3    4 1     
    9    3   13 1     
   10    4    5 1     
   11    4    7 2     
   12    5    6 2     
   13    5   19 1     
   14    7    8 1     
   15    8    9 ar    
   16    8   13 ar    
   17    9   10 ar    
   18    9   20 1     
   19   10   11 ar    
   20   10   21 1     
   21   11   12 ar    
   22   11   22 1     
   23   12   13 ar    
   24   12   23 1     
@<TRIPOS>SUBSTRUCTURE
      1 ****           1
@<TRIPOS>COMMENT
> <Gold.Version>
2022.2.0

> <Gold.Id.Protein>
1qkm|1qkm_protein|mol2

> <Gold.Protein.RotatedTorsions>
[  496  491  490  487 ] final   98.53 input  -89.99 | X-H torsion

> <Gold.Protein.ActiveResidues>
 MET295  LEU298  THR299  LEU301  ALA302  GLU305  TRP335  MET336  LEU339  MET340 
 GLY342  LEU343  ARG346  PHE356  ILE373  ILE376  PHE377  LEU380  LYS471  GLY472 
 MET473  HIS475  LEU476  LEU477  ASN478  MET479  VAL484  VAL487 

> <Gold.Protein.RotatedAtoms>
   36.8984   32.9752   41.9175 H   0  0  0  0  0  0  0  0  0  0  0  0  # atno 496  bound_to 491 

> <Gold.Score>
     Score     S(PLP)   S(hbond)     S(cho)   S(metal)  DE(clash)   DE(tors)     intcor
     42.64     -42.68       0.00       0.00       0.00       0.00       0.02       0.00

> <Gold.PLP.Fitness>
42.6351

> <Gold.PLP.PLP>
-42.6846

> <Gold.PLP.part.hbond>
0.0000

> <Gold.PLP.part.metal>
0.0000

> <Gold.PLP.part.buried>
-3.3224

> <Gold.PLP.part.nonpolar>
-40.2187

> <Gold.PLP.part.repulsive>
0.2107

> <Gold.PLP.ligand.clash>
0.0000

> <Gold.PLP.ligand.torsion>
0.0249

> <Gold.PLP.Chemscore.Hbond>
0.0000

> <Gold.PLP.Chemscore.CHOScore>
0.0000

> <Gold.PLP.Chemscore.Metal>
0.0000

> <Gold.PLP.Chemscore.Internal.Correction>
0.0003

