#       Name:                EN300-45541_i001
#       Creating user name   aseyller
#       Creation time:       Fri Apr 21 17:38:33 2023


#       File generated by GOLD software.
#

@<TRIPOS>MOLECULE
EN300-45541_i001|benzaldehydes|mol2|307|dock6
    23    24     1
SMALL
USER_CHARGES


@<TRIPOS>ATOM
      1 C1          31.4021  34.2759  38.7968 C.3            1 <1>                0.0000
      2 C2          31.5476  35.7990  38.7998 C.3            1 <1>                0.0000
      3 N3          30.2570  36.4135  38.4791 N.pl3          1 <1>                0.0000
      4 C4          29.9771  37.2038  37.3929 C.2            1 <1>                0.0000
      5 C5          30.9412  37.5768  36.3448 C.2            1 <1>                0.0000
      6 O6          32.0775  37.1560  36.3887 O.2            1 <1>                0.0000
      7 N7          28.7206  37.5763  37.4302 N.2            1 <1>                0.0000
      8 C8          28.1260  37.0608  38.5184 C.ar           1 <1>                0.0000
      9 C9          26.8232  37.1390  39.0325 C.ar           1 <1>                0.0000
     10 C10         26.5097  36.4894  40.1897 C.ar           1 <1>                0.0000
     11 C11         27.4677  35.7471  40.8704 C.ar           1 <1>                0.0000
     12 C12         28.7541  35.6539  40.3875 C.ar           1 <1>                0.0000
     13 C13         29.0955  36.3026  39.2065 C.ar           1 <1>                0.0000
     14 H14         32.3624  33.8187  39.0355 H              1 <1>                0.0000
     15 H15         30.6636  33.9801  39.5419 H              1 <1>                0.0000
     16 H16         31.0767  33.9441  37.8109 H              1 <1>                0.0000
     17 H17         31.8731  36.1310  39.7858 H              1 <1>                0.0000
     18 H18         32.2861  36.0949  38.0548 H              1 <1>                0.0000
     19 H19         30.6364  38.2253  35.5367 H              1 <1>                0.0000
     20 H20         26.0700  37.7128  38.5130 H              1 <1>                0.0000
     21 H21         25.5055  36.5527  40.5820 H              1 <1>                0.0000
     22 H22         27.2011  35.2395  41.7856 H              1 <1>                0.0000
     23 H23         29.4933  35.0756  40.9220 H              1 <1>                0.0000
@<TRIPOS>BOND
    1    1    2 1     
    2    1   14 1     
    3    1   15 1     
    4    1   16 1     
    5    2    3 1     
    6    2   17 1     
    7    2   18 1     
    8    3    4 1     
    9    3   13 1     
   10    4    5 1     
   11    4    7 2     
   12    5    6 2     
   13    5   19 1     
   14    7    8 1     
   15    8    9 ar    
   16    8   13 ar    
   17    9   10 ar    
   18    9   20 1     
   19   10   11 ar    
   20   10   21 1     
   21   11   12 ar    
   22   11   22 1     
   23   12   13 ar    
   24   12   23 1     
@<TRIPOS>SUBSTRUCTURE
      1 ****           1
@<TRIPOS>COMMENT
> <Gold.Version>
2022.2.0

> <Gold.Id.Protein>
1qkm|1qkm_protein|mol2

> <Gold.Protein.RotatedTorsions>
[  496  491  490  487 ] final  -45.30 input  -89.99 | X-H torsion

> <Gold.Protein.ActiveResidues>
 MET295  LEU298  THR299  LEU301  ALA302  GLU305  TRP335  MET336  LEU339  MET340 
 GLY342  LEU343  ARG346  PHE356  ILE373  ILE376  PHE377  LEU380  LYS471  GLY472 
 MET473  HIS475  LEU476  LEU477  ASN478  MET479  VAL484  VAL487 

> <Gold.Protein.RotatedAtoms>
   36.3943   34.6819   41.6973 H   0  0  0  0  0  0  0  0  0  0  0  0  # atno 496  bound_to 491 

> <Gold.Score>
     Score     S(PLP)   S(hbond)     S(cho)   S(metal)  DE(clash)   DE(tors)     intcor
     43.62     -43.63       0.00       0.00       0.00       0.00       0.00       0.00

> <Gold.PLP.Fitness>
43.6189

> <Gold.PLP.PLP>
-43.6282

> <Gold.PLP.part.hbond>
0.0000

> <Gold.PLP.part.metal>
0.0000

> <Gold.PLP.part.buried>
-3.1602

> <Gold.PLP.part.nonpolar>
-40.2101

> <Gold.PLP.part.repulsive>
0.0053

> <Gold.PLP.ligand.clash>
0.0000

> <Gold.PLP.ligand.torsion>
0.0048

> <Gold.PLP.Chemscore.Hbond>
0.0000

> <Gold.PLP.Chemscore.CHOScore>
0.0000

> <Gold.PLP.Chemscore.Metal>
0.0000

> <Gold.PLP.Chemscore.Internal.Correction>
0.0003

