#       Name:                EN300-45541_i001
#       Creating user name   aseyller
#       Creation time:       Fri Apr 21 17:38:37 2023


#       File generated by GOLD software.
#

@<TRIPOS>MOLECULE
EN300-45541_i001|benzaldehydes|mol2|307|dock16
    23    24     1
SMALL
USER_CHARGES


@<TRIPOS>ATOM
      1 C1          29.4549  39.9437  36.9902 C.3            1 <1>                0.0000
      2 C2          28.6069  38.6911  36.7600 C.3            1 <1>                0.0000
      3 N3          28.7924  37.7634  37.8785 N.pl3          1 <1>                0.0000
      4 C4          29.9686  37.1667  38.2572 C.2            1 <1>                0.0000
      5 C5          31.2687  37.3589  37.5940 C.2            1 <1>                0.0000
      6 O6          31.3316  37.9700  36.5487 O.2            1 <1>                0.0000
      7 N7          29.7587  36.3994  39.2994 N.2            1 <1>                0.0000
      8 C8          28.4632  36.4527  39.6493 C.ar           1 <1>                0.0000
      9 C9          27.7141  35.8428  40.6664 C.ar           1 <1>                0.0000
     10 C10         26.3790  36.0985  40.7731 C.ar           1 <1>                0.0000
     11 C11         25.7467  36.9594  39.8836 C.ar           1 <1>                0.0000
     12 C12         26.4587  37.5713  38.8759 C.ar           1 <1>                0.0000
     13 C13         27.8220  37.3305  38.7512 C.ar           1 <1>                0.0000
     14 H14         29.3168  40.6339  36.1580 H              1 <1>                0.0000
     15 H15         29.1460  40.4261  37.9176 H              1 <1>                0.0000
     16 H16         30.5059  39.6632  37.0591 H              1 <1>                0.0000
     17 H17         27.5558  38.9715  36.6911 H              1 <1>                0.0000
     18 H18         28.9157  38.2086  35.8328 H              1 <1>                0.0000
     19 H19         32.1665  36.9555  38.0385 H              1 <1>                0.0000
     20 H20         28.1939  35.1717  41.3635 H              1 <1>                0.0000
     21 H21         25.8062  35.6265  41.5575 H              1 <1>                0.0000
     22 H22         24.6884  37.1498  39.9833 H              1 <1>                0.0000
     23 H23         25.9607  38.2387  38.1882 H              1 <1>                0.0000
@<TRIPOS>BOND
    1    1    2 1     
    2    1   14 1     
    3    1   15 1     
    4    1   16 1     
    5    2    3 1     
    6    2   17 1     
    7    2   18 1     
    8    3    4 1     
    9    3   13 1     
   10    4    5 1     
   11    4    7 2     
   12    5    6 2     
   13    5   19 1     
   14    7    8 1     
   15    8    9 ar    
   16    8   13 ar    
   17    9   10 ar    
   18    9   20 1     
   19   10   11 ar    
   20   10   21 1     
   21   11   12 ar    
   22   11   22 1     
   23   12   13 ar    
   24   12   23 1     
@<TRIPOS>SUBSTRUCTURE
      1 ****           1
@<TRIPOS>COMMENT
> <Gold.Version>
2022.2.0

> <Gold.Id.Protein>
1qkm|1qkm_protein|mol2

> <Gold.Protein.RotatedTorsions>
[  496  491  490  487 ] final  107.24 input  -89.99 | X-H torsion

> <Gold.Protein.ActiveResidues>
 MET295  LEU298  THR299  LEU301  ALA302  GLU305  TRP335  MET336  LEU339  MET340 
 GLY342  LEU343  ARG346  PHE356  ILE373  ILE376  PHE377  LEU380  LYS471  GLY472 
 MET473  HIS475  LEU476  LEU477  ASN478  MET479  VAL484  VAL487 

> <Gold.Protein.RotatedAtoms>
   36.9757   32.9472   41.8001 H   0  0  0  0  0  0  0  0  0  0  0  0  # atno 496  bound_to 491 

> <Gold.Score>
     Score     S(PLP)   S(hbond)     S(cho)   S(metal)  DE(clash)   DE(tors)     intcor
     43.48     -43.52       0.00       0.00       0.00       0.00       0.02       0.00

> <Gold.PLP.Fitness>
43.4813

> <Gold.PLP.PLP>
-43.5192

> <Gold.PLP.part.hbond>
0.0000

> <Gold.PLP.part.metal>
0.0000

> <Gold.PLP.part.buried>
-3.1025

> <Gold.PLP.part.nonpolar>
-39.7533

> <Gold.PLP.part.repulsive>
0.0691

> <Gold.PLP.ligand.clash>
0.0000

> <Gold.PLP.ligand.torsion>
0.0191

> <Gold.PLP.Chemscore.Hbond>
0.0000

> <Gold.PLP.Chemscore.CHOScore>
0.0000

> <Gold.PLP.Chemscore.Metal>
0.0000

> <Gold.PLP.Chemscore.Internal.Correction>
0.0003

