#       Name:                EN300-6766775_i003
#       Creating user name   aseyller
#       Creation time:       Fri Apr 21 18:44:50 2023


#       File generated by GOLD software.
#

@<TRIPOS>MOLECULE
EN300-6766775_i003|Sulfonylchlorides|mol2|624|dock10
    18    18     1
SMALL
USER_CHARGES


@<TRIPOS>ATOM
      1 F1          32.9731  36.9960  34.5953 F              1 <1>                0.0000
      2 C2          32.0293  37.3077  35.5800 C.3            1 <1>                0.0000
      3 F3          32.4575  38.4294  36.2979 F              1 <1>                0.0000
      4 F4          30.7981  37.5829  34.9753 F              1 <1>                0.0000
      5 C5          31.8755  36.1206  36.5328 C.3            1 <1>                0.0000
      6 C6          33.0538  35.7962  37.4532 C.3            1 <1>                0.0000
      7 C7          31.7831  36.4236  38.0297 C.3            1 <1>                0.0000
      8 C8          30.8753  35.5296  38.8768 C.3            1 <1>                0.0000
      9 S9          29.2511  36.3165  39.0591 S.o2           1 <1>                0.0000
     10 O10         29.2484  37.6010  38.4513 O.2            1 <1>                0.0000
     11 O11         28.2124  35.3818  38.8010 O.2            1 <1>                0.0000
     12 Cl12        29.0960  36.7005  41.0361 Cl             1 <1>                0.0000
     13 H13         31.2898  35.2842  36.1512 H              1 <1>                0.0000
     14 H14         33.2432  34.7465  37.6775 H              1 <1>                0.0000
     15 H15         33.9387  36.4285  37.3798 H              1 <1>                0.0000
     16 H16         31.8318  37.4686  38.3356 H              1 <1>                0.0000
     17 H17         30.7578  34.5630  38.3869 H              1 <1>                0.0000
     18 H18         31.3221  35.3863  39.8606 H              1 <1>                0.0000
@<TRIPOS>BOND
    1    1    2 1     
    2    2    3 1     
    3    2    4 1     
    4    2    5 1     
    5    5    6 1     
    6    5    7 1     
    7    5   13 1     
    8    6    7 1     
    9    6   14 1     
   10    6   15 1     
   11    7    8 1     
   12    7   16 1     
   13    8    9 1     
   14    8   17 1     
   15    8   18 1     
   16    9   10 2     
   17    9   11 2     
   18    9   12 1     
@<TRIPOS>SUBSTRUCTURE
      1 ****           1
@<TRIPOS>COMMENT
> <Gold.Version>
2022.2.0

> <Gold.Id.Protein>
1qkm|1qkm_protein|mol2

> <Gold.Protein.RotatedTorsions>
[  496  491  490  487 ] final   48.69 input  -89.99 | X-H torsion

> <Gold.Protein.ActiveResidues>
 MET295  LEU298  THR299  LEU301  ALA302  GLU305  TRP335  MET336  LEU339  MET340 
 GLY342  LEU343  ARG346  PHE356  ILE373  ILE376  PHE377  LEU380  LYS471  GLY472 
 MET473  HIS475  LEU476  LEU477  ASN478  MET479  VAL484  VAL487 

> <Gold.Protein.RotatedAtoms>
   36.4632   33.4731   42.3584 H   0  0  0  0  0  0  0  0  0  0  0  0  # atno 496  bound_to 491 

> <Gold.Score>
     Score     S(PLP)   S(hbond)     S(cho)   S(metal)  DE(clash)   DE(tors)     intcor
     37.68     -38.49       0.00       0.00       0.00       0.56       1.35       2.46

> <Gold.PLP.Fitness>
37.6815

> <Gold.PLP.PLP>
-38.4874

> <Gold.PLP.part.hbond>
0.0000

> <Gold.PLP.part.metal>
0.0000

> <Gold.PLP.part.buried>
-2.7151

> <Gold.PLP.part.nonpolar>
-36.7316

> <Gold.PLP.part.repulsive>
0.0027

> <Gold.PLP.ligand.clash>
0.5622

> <Gold.PLP.ligand.torsion>
1.3541

> <Gold.PLP.Chemscore.Hbond>
0.0000

> <Gold.PLP.Chemscore.CHOScore>
0.0000

> <Gold.PLP.Chemscore.Metal>
0.0000

> <Gold.PLP.Chemscore.Internal.Correction>
2.4644

