#       Name:                EN300-6766775_i003
#       Creating user name   aseyller
#       Creation time:       Fri Apr 21 18:44:45 2023


#       File generated by GOLD software.
#

@<TRIPOS>MOLECULE
EN300-6766775_i003|Sulfonylchlorides|mol2|624|dock2
    18    18     1
SMALL
USER_CHARGES


@<TRIPOS>ATOM
      1 F1          30.2737  37.0342  34.9489 F              1 <1>                0.0000
      2 C2          31.4629  37.3728  35.6034 C.3            1 <1>                0.0000
      3 F3          32.2629  36.2328  35.7364 F              1 <1>                0.0000
      4 F4          32.1472  38.3384  34.8574 F              1 <1>                0.0000
      5 C5          31.1400  37.9338  36.9897 C.3            1 <1>                0.0000
      6 C6          30.0188  38.9701  37.0890 C.3            1 <1>                0.0000
      7 C7          29.7960  37.5496  37.6118 C.3            1 <1>                0.0000
      8 C8          29.7496  37.3542  39.1285 C.3            1 <1>                0.0000
      9 S9          28.4365  36.1746  39.5465 S.o2           1 <1>                0.0000
     10 O10         27.1588  36.7332  39.2726 O.2            1 <1>                0.0000
     11 O11         28.7770  34.8699  39.0981 O.2            1 <1>                0.0000
     12 Cl12        28.5006  36.0417  41.5611 Cl             1 <1>                0.0000
     13 H13         31.9914  38.0476  37.6608 H              1 <1>                0.0000
     14 H14         30.1323  39.7655  37.8255 H              1 <1>                0.0000
     15 H15         29.5113  39.2523  36.1665 H              1 <1>                0.0000
     16 H16         29.1419  36.8972  37.0334 H              1 <1>                0.0000
     17 H17         30.7084  36.9682  39.4747 H              1 <1>                0.0000
     18 H18         29.5468  38.3099  39.6120 H              1 <1>                0.0000
@<TRIPOS>BOND
    1    1    2 1     
    2    2    3 1     
    3    2    4 1     
    4    2    5 1     
    5    5    6 1     
    6    5    7 1     
    7    5   13 1     
    8    6    7 1     
    9    6   14 1     
   10    6   15 1     
   11    7    8 1     
   12    7   16 1     
   13    8    9 1     
   14    8   17 1     
   15    8   18 1     
   16    9   10 2     
   17    9   11 2     
   18    9   12 1     
@<TRIPOS>SUBSTRUCTURE
      1 ****           1
@<TRIPOS>COMMENT
> <Gold.Version>
2022.2.0

> <Gold.Id.Protein>
1qkm|1qkm_protein|mol2

> <Gold.Protein.RotatedTorsions>
[  496  491  490  487 ] final -138.01 input  -89.99 | X-H torsion

> <Gold.Protein.ActiveResidues>
 MET295  LEU298  THR299  LEU301  ALA302  GLU305  TRP335  MET336  LEU339  MET340 
 GLY342  LEU343  ARG346  PHE356  ILE373  ILE376  PHE377  LEU380  LYS471  GLY472 
 MET473  HIS475  LEU476  LEU477  ASN478  MET479  VAL484  VAL487 

> <Gold.Protein.RotatedAtoms>
   37.1610   34.1038   40.7270 H   0  0  0  0  0  0  0  0  0  0  0  0  # atno 496  bound_to 491 

> <Gold.Score>
     Score     S(PLP)   S(hbond)     S(cho)   S(metal)  DE(clash)   DE(tors)     intcor
     37.00     -37.42       0.00       0.00       0.00       0.00       1.44       2.47

> <Gold.PLP.Fitness>
37.0037

> <Gold.PLP.PLP>
-37.4170

> <Gold.PLP.part.hbond>
0.0000

> <Gold.PLP.part.metal>
0.0000

> <Gold.PLP.part.buried>
-3.0523

> <Gold.PLP.part.nonpolar>
-35.0757

> <Gold.PLP.part.repulsive>
0.0489

> <Gold.PLP.ligand.clash>
0.0000

> <Gold.PLP.ligand.torsion>
1.4394

> <Gold.PLP.Chemscore.Hbond>
0.0000

> <Gold.PLP.Chemscore.CHOScore>
0.0000

> <Gold.PLP.Chemscore.Metal>
0.0000

> <Gold.PLP.Chemscore.Internal.Correction>
2.4655

