#       Name:                EN300-6766775_i003
#       Creating user name   aseyller
#       Creation time:       Fri Apr 21 18:44:57 2023


#       File generated by GOLD software.
#

@<TRIPOS>MOLECULE
EN300-6766775_i003|Sulfonylchlorides|mol2|624|dock19
    18    18     1
SMALL
USER_CHARGES


@<TRIPOS>ATOM
      1 F1          30.5338  36.9190  34.9022 F              1 <1>                0.0000
      2 C2          31.6925  37.1730  35.6440 C.3            1 <1>                0.0000
      3 F3          32.2863  35.9607  36.0111 F              1 <1>                0.0000
      4 F4          32.5892  37.9156  34.8685 F              1 <1>                0.0000
      5 C5          31.3292  37.9645  36.9019 C.3            1 <1>                0.0000
      6 C6          30.3411  39.1223  36.7474 C.3            1 <1>                0.0000
      7 C7          29.9015  37.8280  37.4348 C.3            1 <1>                0.0000
      8 C8          29.7071  37.8646  38.9519 C.3            1 <1>                0.0000
      9 S9          29.0496  36.2709  39.5160 S.o2           1 <1>                0.0000
     10 O10         29.0927  36.1876  40.9339 O.2            1 <1>                0.0000
     11 O11         27.8700  35.9358  38.7979 O.2            1 <1>                0.0000
     12 Cl12        30.4126  34.9152  38.8956 Cl             1 <1>                0.0000
     13 H13         32.1303  38.0806  37.6320 H              1 <1>                0.0000
     14 H14         30.4917  39.9999  37.3760 H              1 <1>                0.0000
     15 H15         29.9498  39.3202  35.7495 H              1 <1>                0.0000
     16 H16         29.2210  37.1744  36.8891 H              1 <1>                0.0000
     17 H17         30.6648  38.0546  39.4365 H              1 <1>                0.0000
     18 H18         29.0059  38.6585  39.2093 H              1 <1>                0.0000
@<TRIPOS>BOND
    1    1    2 1     
    2    2    3 1     
    3    2    4 1     
    4    2    5 1     
    5    5    6 1     
    6    5    7 1     
    7    5   13 1     
    8    6    7 1     
    9    6   14 1     
   10    6   15 1     
   11    7    8 1     
   12    7   16 1     
   13    8    9 1     
   14    8   17 1     
   15    8   18 1     
   16    9   10 2     
   17    9   11 2     
   18    9   12 1     
@<TRIPOS>SUBSTRUCTURE
      1 ****           1
@<TRIPOS>COMMENT
> <Gold.Version>
2022.2.0

> <Gold.Id.Protein>
1qkm|1qkm_protein|mol2

> <Gold.Protein.RotatedTorsions>
[  496  491  490  487 ] final -159.49 input  -89.99 | X-H torsion

> <Gold.Protein.ActiveResidues>
 MET295  LEU298  THR299  LEU301  ALA302  GLU305  TRP335  MET336  LEU339  MET340 
 GLY342  LEU343  ARG346  PHE356  ILE373  ILE376  PHE377  LEU380  LYS471  GLY472 
 MET473  HIS475  LEU476  LEU477  ASN478  MET479  VAL484  VAL487 

> <Gold.Protein.RotatedAtoms>
   37.2733   33.7713   40.7452 H   0  0  0  0  0  0  0  0  0  0  0  0  # atno 496  bound_to 491 

> <Gold.Score>
     Score     S(PLP)   S(hbond)     S(cho)   S(metal)  DE(clash)   DE(tors)     intcor
     34.89     -35.13       0.00       0.00       0.00       0.00       1.36       2.46

> <Gold.PLP.Fitness>
34.8875

> <Gold.PLP.PLP>
-35.1338

> <Gold.PLP.part.hbond>
0.0000

> <Gold.PLP.part.metal>
0.0000

> <Gold.PLP.part.buried>
-3.4086

> <Gold.PLP.part.nonpolar>
-31.7668

> <Gold.PLP.part.repulsive>
0.1258

> <Gold.PLP.ligand.clash>
0.0000

> <Gold.PLP.ligand.torsion>
1.3554

> <Gold.PLP.Chemscore.Hbond>
0.0000

> <Gold.PLP.Chemscore.CHOScore>
0.0000

> <Gold.PLP.Chemscore.Metal>
0.0000

> <Gold.PLP.Chemscore.Internal.Correction>
2.4644

