#       Name:                EN300-6766775_i003
#       Creating user name   aseyller
#       Creation time:       Fri Apr 21 18:44:48 2023


#       File generated by GOLD software.
#

@<TRIPOS>MOLECULE
EN300-6766775_i003|Sulfonylchlorides|mol2|624|dock7
    18    18     1
SMALL
USER_CHARGES


@<TRIPOS>ATOM
      1 F1          26.6881  35.6587  38.5042 F              1 <1>                0.0000
      2 C2          26.9231  36.8981  39.1093 C.3            1 <1>                0.0000
      3 F3          26.6076  37.9230  38.2109 F              1 <1>                0.0000
      4 F4          26.1253  37.0177  40.2522 F              1 <1>                0.0000
      5 C5          28.3978  37.0016  39.5036 C.3            1 <1>                0.0000
      6 C6          29.0294  35.7943  40.1997 C.3            1 <1>                0.0000
      7 C7          29.3943  36.1186  38.7496 C.3            1 <1>                0.0000
      8 C8          30.7868  36.6935  38.4832 C.3            1 <1>                0.0000
      9 S9          30.7669  37.6316  36.9308 S.o2           1 <1>                0.0000
     10 O10         32.0481  38.1872  36.6676 O.2            1 <1>                0.0000
     11 O11         30.0570  36.9194  35.9268 O.2            1 <1>                0.0000
     12 Cl12        29.6007  39.2332  37.3245 Cl             1 <1>                0.0000
     13 H13         28.7341  37.9921  39.8101 H              1 <1>                0.0000
     14 H14         29.7815  35.9905  40.9639 H              1 <1>                0.0000
     15 H15         28.3942  34.9264  40.3768 H              1 <1>                0.0000
     16 H16         28.9992  35.4640  37.9728 H              1 <1>                0.0000
     17 H17         31.0704  37.3536  39.3030 H              1 <1>                0.0000
     18 H18         31.5075  35.8793  38.4065 H              1 <1>                0.0000
@<TRIPOS>BOND
    1    1    2 1     
    2    2    3 1     
    3    2    4 1     
    4    2    5 1     
    5    5    6 1     
    6    5    7 1     
    7    5   13 1     
    8    6    7 1     
    9    6   14 1     
   10    6   15 1     
   11    7    8 1     
   12    7   16 1     
   13    8    9 1     
   14    8   17 1     
   15    8   18 1     
   16    9   10 2     
   17    9   11 2     
   18    9   12 1     
@<TRIPOS>SUBSTRUCTURE
      1 ****           1
@<TRIPOS>COMMENT
> <Gold.Version>
2022.2.0

> <Gold.Id.Protein>
1qkm|1qkm_protein|mol2

> <Gold.Protein.RotatedTorsions>
[  496  491  490  487 ] final  132.08 input  -89.99 | X-H torsion

> <Gold.Protein.ActiveResidues>
 MET295  LEU298  THR299  LEU301  ALA302  GLU305  TRP335  MET336  LEU339  MET340 
 GLY342  LEU343  ARG346  PHE356  ILE373  ILE376  PHE377  LEU380  LYS471  GLY472 
 MET473  HIS475  LEU476  LEU477  ASN478  MET479  VAL484  VAL487 

> <Gold.Protein.RotatedAtoms>
   37.1667   32.9803   41.4438 H   0  0  0  0  0  0  0  0  0  0  0  0  # atno 496  bound_to 491 

> <Gold.Score>
     Score     S(PLP)   S(hbond)     S(cho)   S(metal)  DE(clash)   DE(tors)     intcor
     38.58     -38.79       0.00       0.00       0.00       0.00       1.34       2.46

> <Gold.PLP.Fitness>
38.5769

> <Gold.PLP.PLP>
-38.7944

> <Gold.PLP.part.hbond>
0.0000

> <Gold.PLP.part.metal>
0.0000

> <Gold.PLP.part.buried>
-2.1224

> <Gold.PLP.part.nonpolar>
-36.6166

> <Gold.PLP.part.repulsive>
0.0142

> <Gold.PLP.ligand.clash>
0.0000

> <Gold.PLP.ligand.torsion>
1.3410

> <Gold.PLP.Chemscore.Hbond>
0.0000

> <Gold.PLP.Chemscore.CHOScore>
0.0000

> <Gold.PLP.Chemscore.Metal>
0.0000

> <Gold.PLP.Chemscore.Internal.Correction>
2.4644

