#       Name:                EN300-6766775_i003
#       Creating user name   aseyller
#       Creation time:       Fri Apr 21 18:44:55 2023


#       File generated by GOLD software.
#

@<TRIPOS>MOLECULE
EN300-6766775_i003|Sulfonylchlorides|mol2|624|dock16
    18    18     1
SMALL
USER_CHARGES


@<TRIPOS>ATOM
      1 F1          33.3029  37.2499  35.1971 F              1 <1>                0.0000
      2 C2          32.6457  36.5567  36.2193 C.3            1 <1>                0.0000
      3 F3          31.9583  35.4661  35.6761 F              1 <1>                0.0000
      4 F4          33.5840  36.0996  37.1508 F              1 <1>                0.0000
      5 C5          31.6525  37.4915  36.9125 C.3            1 <1>                0.0000
      6 C6          30.3622  37.8319  36.1641 C.3            1 <1>                0.0000
      7 C7          30.3212  36.8930  37.3715 C.3            1 <1>                0.0000
      8 C8          29.7126  37.4340  38.6667 C.3            1 <1>                0.0000
      9 S9          28.8234  36.1024  39.5193 S.o2           1 <1>                0.0000
     10 O10         28.9925  34.8702  38.8320 O.2            1 <1>                0.0000
     11 O11         29.0203  36.1909  40.9238 O.2            1 <1>                0.0000
     12 Cl12        26.8715  36.5535  39.2605 Cl             1 <1>                0.0000
     13 H13         32.0949  38.2708  37.5331 H              1 <1>                0.0000
     14 H14         29.9554  38.8350  36.2925 H              1 <1>                0.0000
     15 H15         30.2209  37.3899  35.1778 H              1 <1>                0.0000
     16 H16         30.1531  35.8334  37.1795 H              1 <1>                0.0000
     17 H17         30.5064  37.8115  39.3113 H              1 <1>                0.0000
     18 H18         29.0195  38.2420  38.4328 H              1 <1>                0.0000
@<TRIPOS>BOND
    1    1    2 1     
    2    2    3 1     
    3    2    4 1     
    4    2    5 1     
    5    5    6 1     
    6    5    7 1     
    7    5   13 1     
    8    6    7 1     
    9    6   14 1     
   10    6   15 1     
   11    7    8 1     
   12    7   16 1     
   13    8    9 1     
   14    8   17 1     
   15    8   18 1     
   16    9   10 2     
   17    9   11 2     
   18    9   12 1     
@<TRIPOS>SUBSTRUCTURE
      1 ****           1
@<TRIPOS>COMMENT
> <Gold.Version>
2022.2.0

> <Gold.Id.Protein>
1qkm|1qkm_protein|mol2

> <Gold.Protein.RotatedTorsions>
[  496  491  490  487 ] final  -41.43 input  -89.99 | X-H torsion

> <Gold.Protein.ActiveResidues>
 MET295  LEU298  THR299  LEU301  ALA302  GLU305  TRP335  MET336  LEU339  MET340 
 GLY342  LEU343  ARG346  PHE356  ILE373  ILE376  PHE377  LEU380  LYS471  GLY472 
 MET473  HIS475  LEU476  LEU477  ASN478  MET479  VAL484  VAL487 

> <Gold.Protein.RotatedAtoms>
   36.3713   34.6593   41.7522 H   0  0  0  0  0  0  0  0  0  0  0  0  # atno 496  bound_to 491 

> <Gold.Score>
     Score     S(PLP)   S(hbond)     S(cho)   S(metal)  DE(clash)   DE(tors)     intcor
     33.75     -34.49       0.00       0.00       0.00       0.00       1.60       2.46

> <Gold.PLP.Fitness>
33.7462

> <Gold.PLP.PLP>
-34.4874

> <Gold.PLP.part.hbond>
0.0000

> <Gold.PLP.part.metal>
0.0000

> <Gold.PLP.part.buried>
-3.2710

> <Gold.PLP.part.nonpolar>
-31.8220

> <Gold.PLP.part.repulsive>
0.1587

> <Gold.PLP.ligand.clash>
0.0000

> <Gold.PLP.ligand.torsion>
1.6028

> <Gold.PLP.Chemscore.Hbond>
0.0000

> <Gold.PLP.Chemscore.CHOScore>
0.0000

> <Gold.PLP.Chemscore.Metal>
0.0000

> <Gold.PLP.Chemscore.Internal.Correction>
2.4644

