#       Name:                EN300-6766775_i003
#       Creating user name   aseyller
#       Creation time:       Fri Apr 21 18:44:47 2023


#       File generated by GOLD software.
#

@<TRIPOS>MOLECULE
EN300-6766775_i003|Sulfonylchlorides|mol2|624|dock5
    18    18     1
SMALL
USER_CHARGES


@<TRIPOS>ATOM
      1 F1          26.0189  37.5101  39.2475 F              1 <1>                0.0000
      2 C2          27.0044  36.5411  39.4649 C.3            1 <1>                0.0000
      3 F3          26.8740  36.0255  40.7589 F              1 <1>                0.0000
      4 F4          26.8558  35.5077  38.5338 F              1 <1>                0.0000
      5 C5          28.3874  37.1758  39.3060 C.3            1 <1>                0.0000
      6 C6          29.5782  36.2352  39.1106 C.3            1 <1>                0.0000
      7 C7          29.0608  37.0684  37.9362 C.3            1 <1>                0.0000
      8 C8          29.9179  38.2491  37.4759 C.3            1 <1>                0.0000
      9 S9          31.2136  37.6547  36.3540 S.o2           1 <1>                0.0000
     10 O10         32.4714  38.2165  36.7028 O.2            1 <1>                0.0000
     11 O11         31.0727  36.2594  36.1243 O.2            1 <1>                0.0000
     12 Cl12        30.7666  38.5002  34.5747 Cl             1 <1>                0.0000
     13 H13         28.5550  38.0876  39.8794 H              1 <1>                0.0000
     14 H14         30.5293  36.5282  39.5551 H              1 <1>                0.0000
     15 H15         29.3763  35.1642  39.0954 H              1 <1>                0.0000
     16 H16         28.5185  36.5455  37.1485 H              1 <1>                0.0000
     17 H17         29.2904  38.9726  36.9553 H              1 <1>                0.0000
     18 H18         30.3777  38.7241  38.3426 H              1 <1>                0.0000
@<TRIPOS>BOND
    1    1    2 1     
    2    2    3 1     
    3    2    4 1     
    4    2    5 1     
    5    5    6 1     
    6    5    7 1     
    7    5   13 1     
    8    6    7 1     
    9    6   14 1     
   10    6   15 1     
   11    7    8 1     
   12    7   16 1     
   13    8    9 1     
   14    8   17 1     
   15    8   18 1     
   16    9   10 2     
   17    9   11 2     
   18    9   12 1     
@<TRIPOS>SUBSTRUCTURE
      1 ****           1
@<TRIPOS>COMMENT
> <Gold.Version>
2022.2.0

> <Gold.Id.Protein>
1qkm|1qkm_protein|mol2

> <Gold.Protein.RotatedTorsions>
[  496  491  490  487 ] final   12.84 input  -89.99 | X-H torsion

> <Gold.Protein.ActiveResidues>
 MET295  LEU298  THR299  LEU301  ALA302  GLU305  TRP335  MET336  LEU339  MET340 
 GLY342  LEU343  ARG346  PHE356  ILE373  ILE376  PHE377  LEU380  LYS471  GLY472 
 MET473  HIS475  LEU476  LEU477  ASN478  MET479  VAL484  VAL487 

> <Gold.Protein.RotatedAtoms>
   36.2799   34.0230   42.3239 H   0  0  0  0  0  0  0  0  0  0  0  0  # atno 496  bound_to 491 

> <Gold.Score>
     Score     S(PLP)   S(hbond)     S(cho)   S(metal)  DE(clash)   DE(tors)     intcor
     35.50     -35.62       0.00       0.00       0.00       0.00       1.29       2.46

> <Gold.PLP.Fitness>
35.4967

> <Gold.PLP.PLP>
-35.6166

> <Gold.PLP.part.hbond>
0.0000

> <Gold.PLP.part.metal>
0.0000

> <Gold.PLP.part.buried>
-1.3734

> <Gold.PLP.part.nonpolar>
-34.5463

> <Gold.PLP.part.repulsive>
0.0323

> <Gold.PLP.ligand.clash>
0.0000

> <Gold.PLP.ligand.torsion>
1.2921

> <Gold.PLP.Chemscore.Hbond>
0.0000

> <Gold.PLP.Chemscore.CHOScore>
0.0000

> <Gold.PLP.Chemscore.Metal>
0.0000

> <Gold.PLP.Chemscore.Internal.Correction>
2.4644

