#       Name:                EN300-6766775_i003
#       Creating user name   aseyller
#       Creation time:       Fri Apr 21 18:44:47 2023


#       File generated by GOLD software.
#

@<TRIPOS>MOLECULE
EN300-6766775_i003|Sulfonylchlorides|mol2|624|dock6
    18    18     1
SMALL
USER_CHARGES


@<TRIPOS>ATOM
      1 F1          26.8050  37.9291  38.0617 F              1 <1>                0.0000
      2 C2          27.1617  36.8945  38.9333 C.3            1 <1>                0.0000
      3 F3          26.4101  36.9953  40.1090 F              1 <1>                0.0000
      4 F4          26.9086  35.6618  38.3222 F              1 <1>                0.0000
      5 C5          28.6505  37.0011  39.2691 C.3            1 <1>                0.0000
      6 C6          29.3557  35.7364  39.7632 C.3            1 <1>                0.0000
      7 C7          29.6350  36.2678  38.3558 C.3            1 <1>                0.0000
      8 C8          30.9928  36.9273  38.1063 C.3            1 <1>                0.0000
      9 S9          31.0532  37.5635  36.4087 S.o2           1 <1>                0.0000
     10 O10         29.9741  37.0449  35.6432 O.2            1 <1>                0.0000
     11 O11         31.3511  38.9530  36.4072 O.2            1 <1>                0.0000
     12 Cl12        32.6937  36.7014  35.6052 Cl             1 <1>                0.0000
     13 H13         28.9700  37.9535  39.6925 H              1 <1>                0.0000
     14 H14         30.1393  35.8566  40.5112 H              1 <1>                0.0000
     15 H15         28.7588  34.8284  39.8490 H              1 <1>                0.0000
     16 H16         29.2219  35.7094  37.5159 H              1 <1>                0.0000
     17 H17         31.1315  37.7500  38.8078 H              1 <1>                0.0000
     18 H18         31.7852  36.1922  38.2472 H              1 <1>                0.0000
@<TRIPOS>BOND
    1    1    2 1     
    2    2    3 1     
    3    2    4 1     
    4    2    5 1     
    5    5    6 1     
    6    5    7 1     
    7    5   13 1     
    8    6    7 1     
    9    6   14 1     
   10    6   15 1     
   11    7    8 1     
   12    7   16 1     
   13    8    9 1     
   14    8   17 1     
   15    8   18 1     
   16    9   10 2     
   17    9   11 2     
   18    9   12 1     
@<TRIPOS>SUBSTRUCTURE
      1 ****           1
@<TRIPOS>COMMENT
> <Gold.Version>
2022.2.0

> <Gold.Id.Protein>
1qkm|1qkm_protein|mol2

> <Gold.Protein.RotatedTorsions>
[  496  491  490  487 ] final -154.04 input  -89.99 | X-H torsion

> <Gold.Protein.ActiveResidues>
 MET295  LEU298  THR299  LEU301  ALA302  GLU305  TRP335  MET336  LEU339  MET340 
 GLY342  LEU343  ARG346  PHE356  ILE373  ILE376  PHE377  LEU380  LYS471  GLY472 
 MET473  HIS475  LEU476  LEU477  ASN478  MET479  VAL484  VAL487 

> <Gold.Protein.RotatedAtoms>
   37.2507   33.8566   40.7296 H   0  0  0  0  0  0  0  0  0  0  0  0  # atno 496  bound_to 491 

> <Gold.Score>
     Score     S(PLP)   S(hbond)     S(cho)   S(metal)  DE(clash)   DE(tors)     intcor
     37.04     -37.20       0.00       0.00       0.00       0.00       1.31       2.46

> <Gold.PLP.Fitness>
37.0401

> <Gold.PLP.PLP>
-37.2020

> <Gold.PLP.part.hbond>
0.0000

> <Gold.PLP.part.metal>
0.0000

> <Gold.PLP.part.buried>
-2.8585

> <Gold.PLP.part.nonpolar>
-34.8786

> <Gold.PLP.part.repulsive>
0.0226

> <Gold.PLP.ligand.clash>
0.0000

> <Gold.PLP.ligand.torsion>
1.3132

> <Gold.PLP.Chemscore.Hbond>
0.0000

> <Gold.PLP.Chemscore.CHOScore>
0.0000

> <Gold.PLP.Chemscore.Metal>
0.0000

> <Gold.PLP.Chemscore.Internal.Correction>
2.4644

