#       Name:                EN300-6766775_i003
#       Creating user name   aseyller
#       Creation time:       Fri Apr 21 18:44:55 2023


#       File generated by GOLD software.
#

@<TRIPOS>MOLECULE
EN300-6766775_i003|Sulfonylchlorides|mol2|624|dock17
    18    18     1
SMALL
USER_CHARGES


@<TRIPOS>ATOM
      1 F1          26.7021  35.6160  38.5630 F              1 <1>                0.0000
      2 C2          26.9267  36.9245  39.0042 C.3            1 <1>                0.0000
      3 F3          26.9008  37.7963  37.9104 F              1 <1>                0.0000
      4 F4          25.9278  37.2877  39.9139 F              1 <1>                0.0000
      5 C5          28.2929  37.0046  39.6881 C.3            1 <1>                0.0000
      6 C6          28.7792  35.7655  40.4424 C.3            1 <1>                0.0000
      7 C7          29.4236  36.1515  39.1095 C.3            1 <1>                0.0000
      8 C8          30.8386  36.7319  39.1508 C.3            1 <1>                0.0000
      9 S9          31.7887  36.1105  37.7360 S.o2           1 <1>                0.0000
     10 O10         31.1175  36.4022  36.5179 O.2            1 <1>                0.0000
     11 O11         33.1708  36.3987  37.8981 O.2            1 <1>                0.0000
     12 Cl12        31.6767  34.1001  37.8974 Cl             1 <1>                0.0000
     13 H13         28.5569  37.9794  40.0984 H              1 <1>                0.0000
     14 H14         29.3633  35.9249  41.3487 H              1 <1>                0.0000
     15 H15         28.1256  34.8932  40.4514 H              1 <1>                0.0000
     16 H16         29.1941  35.5333  38.2417 H              1 <1>                0.0000
     17 H17         30.7867  37.8197  39.1040 H              1 <1>                0.0000
     18 H18         31.3278  36.4311  40.0773 H              1 <1>                0.0000
@<TRIPOS>BOND
    1    1    2 1     
    2    2    3 1     
    3    2    4 1     
    4    2    5 1     
    5    5    6 1     
    6    5    7 1     
    7    5   13 1     
    8    6    7 1     
    9    6   14 1     
   10    6   15 1     
   11    7    8 1     
   12    7   16 1     
   13    8    9 1     
   14    8   17 1     
   15    8   18 1     
   16    9   10 2     
   17    9   11 2     
   18    9   12 1     
@<TRIPOS>SUBSTRUCTURE
      1 ****           1
@<TRIPOS>COMMENT
> <Gold.Version>
2022.2.0

> <Gold.Id.Protein>
1qkm|1qkm_protein|mol2

> <Gold.Protein.RotatedTorsions>
[  496  491  490  487 ] final -134.81 input  -89.99 | X-H torsion

> <Gold.Protein.ActiveResidues>
 MET295  LEU298  THR299  LEU301  ALA302  GLU305  TRP335  MET336  LEU339  MET340 
 GLY342  LEU343  ARG346  PHE356  ILE373  ILE376  PHE377  LEU380  LYS471  GLY472 
 MET473  HIS475  LEU476  LEU477  ASN478  MET479  VAL484  VAL487 

> <Gold.Protein.RotatedAtoms>
   37.1393   34.1513   40.7342 H   0  0  0  0  0  0  0  0  0  0  0  0  # atno 496  bound_to 491 

> <Gold.Score>
     Score     S(PLP)   S(hbond)     S(cho)   S(metal)  DE(clash)   DE(tors)     intcor
     38.57     -38.94       0.00       0.00       0.00       0.00       1.42       2.46

> <Gold.PLP.Fitness>
38.5707

> <Gold.PLP.PLP>
-38.9399

> <Gold.PLP.part.hbond>
0.0000

> <Gold.PLP.part.metal>
0.0000

> <Gold.PLP.part.buried>
-3.1294

> <Gold.PLP.part.nonpolar>
-36.2773

> <Gold.PLP.part.repulsive>
0.0469

> <Gold.PLP.ligand.clash>
0.0000

> <Gold.PLP.ligand.torsion>
1.4168

> <Gold.PLP.Chemscore.Hbond>
0.0000

> <Gold.PLP.Chemscore.CHOScore>
0.0000

> <Gold.PLP.Chemscore.Metal>
0.0000

> <Gold.PLP.Chemscore.Internal.Correction>
2.4644

