#       Name:                EN300-6766775_i003
#       Creating user name   aseyller
#       Creation time:       Fri Apr 21 18:44:49 2023


#       File generated by GOLD software.
#

@<TRIPOS>MOLECULE
EN300-6766775_i003|Sulfonylchlorides|mol2|624|dock9
    18    18     1
SMALL
USER_CHARGES


@<TRIPOS>ATOM
      1 F1          33.2794  36.2399  37.6999 F              1 <1>                0.0000
      2 C2          31.9427  35.8522  37.5577 C.3            1 <1>                0.0000
      3 F3          31.5383  36.0498  36.2331 F              1 <1>                0.0000
      4 F4          31.8119  34.4991  37.8883 F              1 <1>                0.0000
      5 C5          31.0664  36.6918  38.4891 C.3            1 <1>                0.0000
      6 C6          30.3383  37.8928  37.8820 C.3            1 <1>                0.0000
      7 C7          29.5526  36.6393  38.2726 C.3            1 <1>                0.0000
      8 C8          28.6584  36.7235  39.5112 C.3            1 <1>                0.0000
      9 S9          26.9213  36.8197  38.9976 S.o2           1 <1>                0.0000
     10 O10         26.6728  38.0354  38.3051 O.2            1 <1>                0.0000
     11 O11         26.4877  35.5738  38.4694 O.2            1 <1>                0.0000
     12 Cl12        25.8944  37.0124  40.7264 Cl             1 <1>                0.0000
     13 H13         31.4255  36.7865  39.5140 H              1 <1>                0.0000
     14 H14         30.2181  38.7773  38.5074 H              1 <1>                0.0000
     15 H15         30.4838  38.0846  36.8189 H              1 <1>                0.0000
     16 H16         29.1812  36.0066  37.4666 H              1 <1>                0.0000
     17 H17         28.8065  35.8365  40.1273 H              1 <1>                0.0000
     18 H18         28.9171  37.6126  40.0863 H              1 <1>                0.0000
@<TRIPOS>BOND
    1    1    2 1     
    2    2    3 1     
    3    2    4 1     
    4    2    5 1     
    5    5    6 1     
    6    5    7 1     
    7    5   13 1     
    8    6    7 1     
    9    6   14 1     
   10    6   15 1     
   11    7    8 1     
   12    7   16 1     
   13    8    9 1     
   14    8   17 1     
   15    8   18 1     
   16    9   10 2     
   17    9   11 2     
   18    9   12 1     
@<TRIPOS>SUBSTRUCTURE
      1 ****           1
@<TRIPOS>COMMENT
> <Gold.Version>
2022.2.0

> <Gold.Id.Protein>
1qkm|1qkm_protein|mol2

> <Gold.Protein.RotatedTorsions>
[  496  491  490  487 ] final  -13.43 input  -89.99 | X-H torsion

> <Gold.Protein.ActiveResidues>
 MET295  LEU298  THR299  LEU301  ALA302  GLU305  TRP335  MET336  LEU339  MET340 
 GLY342  LEU343  ARG346  PHE356  ILE373  ILE376  PHE377  LEU380  LYS471  GLY472 
 MET473  HIS475  LEU476  LEU477  ASN478  MET479  VAL484  VAL487 

> <Gold.Protein.RotatedAtoms>
   36.2669   34.3928   42.1076 H   0  0  0  0  0  0  0  0  0  0  0  0  # atno 496  bound_to 491 

> <Gold.Score>
     Score     S(PLP)   S(hbond)     S(cho)   S(metal)  DE(clash)   DE(tors)     intcor
     36.77     -37.02       0.00       0.00       0.00       0.05       1.34       2.46

> <Gold.PLP.Fitness>
36.7689

> <Gold.PLP.PLP>
-37.0213

> <Gold.PLP.part.hbond>
0.0000

> <Gold.PLP.part.metal>
0.0000

> <Gold.PLP.part.buried>
-1.3541

> <Gold.PLP.part.nonpolar>
-36.0417

> <Gold.PLP.part.repulsive>
0.0879

> <Gold.PLP.ligand.clash>
0.0462

> <Gold.PLP.ligand.torsion>
1.3353

> <Gold.PLP.Chemscore.Hbond>
0.0000

> <Gold.PLP.Chemscore.CHOScore>
0.0000

> <Gold.PLP.Chemscore.Metal>
0.0000

> <Gold.PLP.Chemscore.Internal.Correction>
2.4644

