#       Name:                EN300-6766775_i003
#       Creating user name   aseyller
#       Creation time:       Fri Apr 21 18:44:58 2023


#       File generated by GOLD software.
#

@<TRIPOS>MOLECULE
EN300-6766775_i003|Sulfonylchlorides|mol2|624|dock20
    18    18     1
SMALL
USER_CHARGES


@<TRIPOS>ATOM
      1 F1          26.7474  35.5845  38.4894 F              1 <1>                0.0000
      2 C2          26.9740  36.5157  39.5087 C.3            1 <1>                0.0000
      3 F3          26.0749  37.5794  39.3768 F              1 <1>                0.0000
      4 F4          26.7898  35.9007  40.7516 F              1 <1>                0.0000
      5 C5          28.4065  37.0434  39.4080 C.3            1 <1>                0.0000
      6 C6          29.4713  36.0954  38.8526 C.3            1 <1>                0.0000
      7 C7          28.9785  37.2717  38.0074 C.3            1 <1>                0.0000
      8 C8          29.9316  38.4534  37.8175 C.3            1 <1>                0.0000
      9 S9          30.6359  38.3998  36.1467 S.o2           1 <1>                0.0000
     10 O10         30.1756  37.2511  35.4482 O.2            1 <1>                0.0000
     11 O11         30.5948  39.6874  35.5467 O.2            1 <1>                0.0000
     12 Cl12        32.6035  38.0493  36.4399 Cl             1 <1>                0.0000
     13 H13         28.7092  37.7348  40.1945 H              1 <1>                0.0000
     14 H14         30.4745  36.1633  39.2733 H              1 <1>                0.0000
     15 H15         29.1511  35.0957  38.5590 H              1 <1>                0.0000
     16 H16         28.3342  37.0460  37.1578 H              1 <1>                0.0000
     17 H17         29.3846  39.3866  37.9515 H              1 <1>                0.0000
     18 H18         30.7346  38.3943  38.5523 H              1 <1>                0.0000
@<TRIPOS>BOND
    1    1    2 1     
    2    2    3 1     
    3    2    4 1     
    4    2    5 1     
    5    5    6 1     
    6    5    7 1     
    7    5   13 1     
    8    6    7 1     
    9    6   14 1     
   10    6   15 1     
   11    7    8 1     
   12    7   16 1     
   13    8    9 1     
   14    8   17 1     
   15    8   18 1     
   16    9   10 2     
   17    9   11 2     
   18    9   12 1     
@<TRIPOS>SUBSTRUCTURE
      1 ****           1
@<TRIPOS>COMMENT
> <Gold.Version>
2022.2.0

> <Gold.Id.Protein>
1qkm|1qkm_protein|mol2

> <Gold.Protein.RotatedTorsions>
[  496  491  490  487 ] final   95.50 input  -89.99 | X-H torsion

> <Gold.Protein.ActiveResidues>
 MET295  LEU298  THR299  LEU301  ALA302  GLU305  TRP335  MET336  LEU339  MET340 
 GLY342  LEU343  ARG346  PHE356  ILE373  ILE376  PHE377  LEU380  LYS471  GLY472 
 MET473  HIS475  LEU476  LEU477  ASN478  MET479  VAL484  VAL487 

> <Gold.Protein.RotatedAtoms>
   36.8708   32.9897   41.9564 H   0  0  0  0  0  0  0  0  0  0  0  0  # atno 496  bound_to 491 

> <Gold.Score>
     Score     S(PLP)   S(hbond)     S(cho)   S(metal)  DE(clash)   DE(tors)     intcor
     35.79     -35.95       0.00       0.00       0.00       0.00       1.31       2.46

> <Gold.PLP.Fitness>
35.7866

> <Gold.PLP.PLP>
-35.9470

> <Gold.PLP.part.hbond>
0.0000

> <Gold.PLP.part.metal>
0.0000

> <Gold.PLP.part.buried>
-3.0444

> <Gold.PLP.part.nonpolar>
-33.1654

> <Gold.PLP.part.repulsive>
0.0306

> <Gold.PLP.ligand.clash>
0.0000

> <Gold.PLP.ligand.torsion>
1.3124

> <Gold.PLP.Chemscore.Hbond>
0.0000

> <Gold.PLP.Chemscore.CHOScore>
0.0000

> <Gold.PLP.Chemscore.Metal>
0.0000

> <Gold.PLP.Chemscore.Internal.Correction>
2.4643

