#       Name:                EN300-6766775_i003
#       Creating user name   aseyller
#       Creation time:       Fri Apr 21 18:44:56 2023


#       File generated by GOLD software.
#

@<TRIPOS>MOLECULE
EN300-6766775_i003|Sulfonylchlorides|mol2|624|dock18
    18    18     1
SMALL
USER_CHARGES


@<TRIPOS>ATOM
      1 F1          27.8102  37.0054  39.5093 F              1 <1>                0.0000
      2 C2          28.6882  36.3003  40.3396 C.3            1 <1>                0.0000
      3 F3          28.7875  36.9518  41.5736 F              1 <1>                0.0000
      4 F4          28.2039  35.0024  40.5351 F              1 <1>                0.0000
      5 C5          30.0691  36.2361  39.6842 C.3            1 <1>                0.0000
      6 C6          30.3706  35.0332  38.7880 C.3            1 <1>                0.0000
      7 C7          30.1393  36.4118  38.1659 C.3            1 <1>                0.0000
      8 C8          31.3563  37.1422  37.5948 C.3            1 <1>                0.0000
      9 S9          31.6794  36.5532  35.9098 S.o2           1 <1>                0.0000
     10 O10         32.3949  35.3257  35.9394 O.2            1 <1>                0.0000
     11 O11         30.5241  36.7082  35.0972 O.2            1 <1>                0.0000
     12 Cl12        33.0008  37.8820  35.1559 Cl             1 <1>                0.0000
     13 H13         30.8899  36.6406  40.2765 H              1 <1>                0.0000
     14 H14         31.3896  34.6466  38.7903 H              1 <1>                0.0000
     15 H15         29.5850  34.2876  38.6654 H              1 <1>                0.0000
     16 H16         29.2017  36.5731  37.6341 H              1 <1>                0.0000
     17 H17         31.1598  38.2142  37.5734 H              1 <1>                0.0000
     18 H18         32.2259  36.9448  38.2218 H              1 <1>                0.0000
@<TRIPOS>BOND
    1    1    2 1     
    2    2    3 1     
    3    2    4 1     
    4    2    5 1     
    5    5    6 1     
    6    5    7 1     
    7    5   13 1     
    8    6    7 1     
    9    6   14 1     
   10    6   15 1     
   11    7    8 1     
   12    7   16 1     
   13    8    9 1     
   14    8   17 1     
   15    8   18 1     
   16    9   10 2     
   17    9   11 2     
   18    9   12 1     
@<TRIPOS>SUBSTRUCTURE
      1 ****           1
@<TRIPOS>COMMENT
> <Gold.Version>
2022.2.0

> <Gold.Id.Protein>
1qkm|1qkm_protein|mol2

> <Gold.Protein.RotatedTorsions>
[  496  491  490  487 ] final  139.70 input  -89.99 | X-H torsion

> <Gold.Protein.ActiveResidues>
 MET295  LEU298  THR299  LEU301  ALA302  GLU305  TRP335  MET336  LEU339  MET340 
 GLY342  LEU343  ARG346  PHE356  ILE373  ILE376  PHE377  LEU380  LYS471  GLY472 
 MET473  HIS475  LEU476  LEU477  ASN478  MET479  VAL484  VAL487 

> <Gold.Protein.RotatedAtoms>
   37.2126   33.0233   41.3354 H   0  0  0  0  0  0  0  0  0  0  0  0  # atno 496  bound_to 491 

> <Gold.Score>
     Score     S(PLP)   S(hbond)     S(cho)   S(metal)  DE(clash)   DE(tors)     intcor
     32.75     -34.08       0.00       0.00       0.00       0.00       1.90       2.46

> <Gold.PLP.Fitness>
32.7490

> <Gold.PLP.PLP>
-34.0798

> <Gold.PLP.part.hbond>
0.0000

> <Gold.PLP.part.metal>
0.0000

> <Gold.PLP.part.buried>
-2.3484

> <Gold.PLP.part.nonpolar>
-31.9505

> <Gold.PLP.part.repulsive>
0.1201

> <Gold.PLP.ligand.clash>
0.0000

> <Gold.PLP.ligand.torsion>
1.8976

> <Gold.PLP.Chemscore.Hbond>
0.0000

> <Gold.PLP.Chemscore.CHOScore>
0.0000

> <Gold.PLP.Chemscore.Metal>
0.0000

> <Gold.PLP.Chemscore.Internal.Correction>
2.4644

