#       Name:                EN300-6766775_i003
#       Creating user name   aseyller
#       Creation time:       Fri Apr 21 18:44:44 2023


#       File generated by GOLD software.
#

@<TRIPOS>MOLECULE
EN300-6766775_i003|Sulfonylchlorides|mol2|624|dock1
    18    18     1
SMALL
USER_CHARGES


@<TRIPOS>ATOM
      1 F1          28.2066  34.8571  39.1097 F              1 <1>                0.0000
      2 C2          28.4854  36.0164  39.8415 C.3            1 <1>                0.0000
      3 F3          27.5378  36.9994  39.5367 F              1 <1>                0.0000
      4 F4          28.4346  35.7279  41.2094 F              1 <1>                0.0000
      5 C5          29.8822  36.5247  39.4790 C.3            1 <1>                0.0000
      6 C6          30.8766  35.5116  38.9083 C.3            1 <1>                0.0000
      7 C7          30.2543  36.5703  37.9955 C.3            1 <1>                0.0000
      8 C8          31.1535  37.7163  37.5277 C.3            1 <1>                0.0000
      9 S9          30.8957  38.0022  35.7550 S.o2           1 <1>                0.0000
     10 O10         30.0565  36.9961  35.2046 O.2            1 <1>                0.0000
     11 O11         30.6512  39.3791  35.5023 O.2            1 <1>                0.0000
     12 Cl12        32.7022  37.6556  34.9205 Cl             1 <1>                0.0000
     13 H13         30.2779  37.3111  40.1218 H              1 <1>                0.0000
     14 H14         31.9265  35.6316  39.1753 H              1 <1>                0.0000
     15 H15         30.5357  34.4829  38.7912 H              1 <1>                0.0000
     16 H16         29.5041  36.2381  37.2781 H              1 <1>                0.0000
     17 H17         30.9058  38.6219  38.0815 H              1 <1>                0.0000
     18 H18         32.1968  37.4556  37.7057 H              1 <1>                0.0000
@<TRIPOS>BOND
    1    1    2 1     
    2    2    3 1     
    3    2    4 1     
    4    2    5 1     
    5    5    6 1     
    6    5    7 1     
    7    5   13 1     
    8    6    7 1     
    9    6   14 1     
   10    6   15 1     
   11    7    8 1     
   12    7   16 1     
   13    8    9 1     
   14    8   17 1     
   15    8   18 1     
   16    9   10 2     
   17    9   11 2     
   18    9   12 1     
@<TRIPOS>SUBSTRUCTURE
      1 ****           1
@<TRIPOS>COMMENT
> <Gold.Version>
2022.2.0

> <Gold.Id.Protein>
1qkm|1qkm_protein|mol2

> <Gold.Protein.RotatedTorsions>
[  496  491  490  487 ] final  118.22 input  -89.99 | X-H torsion

> <Gold.Protein.ActiveResidues>
 MET295  LEU298  THR299  LEU301  ALA302  GLU305  TRP335  MET336  LEU339  MET340 
 GLY342  LEU343  ARG346  PHE356  ILE373  ILE376  PHE377  LEU380  LYS471  GLY472 
 MET473  HIS475  LEU476  LEU477  ASN478  MET479  VAL484  VAL487 

> <Gold.Protein.RotatedAtoms>
   37.0667   32.9411   41.6445 H   0  0  0  0  0  0  0  0  0  0  0  0  # atno 496  bound_to 491 

> <Gold.Score>
     Score     S(PLP)   S(hbond)     S(cho)   S(metal)  DE(clash)   DE(tors)     intcor
     35.70     -36.10       0.00       0.00       0.00       0.00       1.43       2.47

> <Gold.PLP.Fitness>
35.7026

> <Gold.PLP.PLP>
-36.0983

> <Gold.PLP.part.hbond>
0.0000

> <Gold.PLP.part.metal>
0.0000

> <Gold.PLP.part.buried>
-3.0216

> <Gold.PLP.part.nonpolar>
-33.1927

> <Gold.PLP.part.repulsive>
0.0451

> <Gold.PLP.ligand.clash>
0.0000

> <Gold.PLP.ligand.torsion>
1.4306

> <Gold.PLP.Chemscore.Hbond>
0.0000

> <Gold.PLP.Chemscore.CHOScore>
0.0000

> <Gold.PLP.Chemscore.Metal>
0.0000

> <Gold.PLP.Chemscore.Internal.Correction>
2.4655

