#       Name:                EN300-6766775_i003
#       Creating user name   aseyller
#       Creation time:       Fri Apr 21 18:44:48 2023


#       File generated by GOLD software.
#

@<TRIPOS>MOLECULE
EN300-6766775_i003|Sulfonylchlorides|mol2|624|dock8
    18    18     1
SMALL
USER_CHARGES


@<TRIPOS>ATOM
      1 F1          30.2565  37.0037  35.1254 F              1 <1>                0.0000
      2 C2          31.4279  37.3221  35.8210 C.3            1 <1>                0.0000
      3 F3          32.1978  36.1665  35.9915 F              1 <1>                0.0000
      4 F4          32.1598  38.2669  35.0938 F              1 <1>                0.0000
      5 C5          31.0665  37.9008  37.1904 C.3            1 <1>                0.0000
      6 C6          29.8878  38.8740  37.2574 C.3            1 <1>                0.0000
      7 C7          29.7432  37.4576  37.8177 C.3            1 <1>                0.0000
      8 C8          29.7001  37.3007  39.3390 C.3            1 <1>                0.0000
      9 S9          28.4489  36.0651  39.7843 S.o2           1 <1>                0.0000
     10 O10         28.6895  34.8430  39.1003 O.2            1 <1>                0.0000
     11 O11         28.2040  36.0854  41.1839 O.2            1 <1>                0.0000
     12 Cl12        26.7379  36.7638  38.9690 Cl             1 <1>                0.0000
     13 H13         31.9066  38.0808  37.8613 H              1 <1>                0.0000
     14 H14         29.9522  39.6940  37.9725 H              1 <1>                0.0000
     15 H15         29.3699  39.1020  36.3258 H              1 <1>                0.0000
     16 H16         29.1302  36.7538  37.2548 H              1 <1>                0.0000
     17 H17         30.6762  36.9751  39.6985 H              1 <1>                0.0000
     18 H18         29.4451  38.2570  39.7958 H              1 <1>                0.0000
@<TRIPOS>BOND
    1    1    2 1     
    2    2    3 1     
    3    2    4 1     
    4    2    5 1     
    5    5    6 1     
    6    5    7 1     
    7    5   13 1     
    8    6    7 1     
    9    6   14 1     
   10    6   15 1     
   11    7    8 1     
   12    7   16 1     
   13    8    9 1     
   14    8   17 1     
   15    8   18 1     
   16    9   10 2     
   17    9   11 2     
   18    9   12 1     
@<TRIPOS>SUBSTRUCTURE
      1 ****           1
@<TRIPOS>COMMENT
> <Gold.Version>
2022.2.0

> <Gold.Id.Protein>
1qkm|1qkm_protein|mol2

> <Gold.Protein.RotatedTorsions>
[  496  491  490  487 ] final  -60.14 input  -89.99 | X-H torsion

> <Gold.Protein.ActiveResidues>
 MET295  LEU298  THR299  LEU301  ALA302  GLU305  TRP335  MET336  LEU339  MET340 
 GLY342  LEU343  ARG346  PHE356  ILE373  ILE376  PHE377  LEU380  LYS471  GLY472 
 MET473  HIS475  LEU476  LEU477  ASN478  MET479  VAL484  VAL487 

> <Gold.Protein.RotatedAtoms>
   36.4981   34.7322   41.4827 H   0  0  0  0  0  0  0  0  0  0  0  0  # atno 496  bound_to 491 

> <Gold.Score>
     Score     S(PLP)   S(hbond)     S(cho)   S(metal)  DE(clash)   DE(tors)     intcor
     36.44     -36.82       0.00       0.00       0.00       0.00       1.42       2.46

> <Gold.PLP.Fitness>
36.4424

> <Gold.PLP.PLP>
-36.8155

> <Gold.PLP.part.hbond>
0.0000

> <Gold.PLP.part.metal>
0.0000

> <Gold.PLP.part.buried>
-3.2298

> <Gold.PLP.part.nonpolar>
-33.7653

> <Gold.PLP.part.repulsive>
0.1627

> <Gold.PLP.ligand.clash>
0.0000

> <Gold.PLP.ligand.torsion>
1.4188

> <Gold.PLP.Chemscore.Hbond>
0.0000

> <Gold.PLP.Chemscore.CHOScore>
0.0000

> <Gold.PLP.Chemscore.Metal>
0.0000

> <Gold.PLP.Chemscore.Internal.Correction>
2.4644

