#       Name:                EN300-6766775_i003
#       Creating user name   aseyller
#       Creation time:       Fri Apr 21 18:44:54 2023


#       File generated by GOLD software.
#

@<TRIPOS>MOLECULE
EN300-6766775_i003|Sulfonylchlorides|mol2|624|dock15
    18    18     1
SMALL
USER_CHARGES


@<TRIPOS>ATOM
      1 F1          28.0152  36.1493  41.2947 F              1 <1>                0.0000
      2 C2          28.1021  36.2142  39.8999 C.3            1 <1>                0.0000
      3 F3          28.0185  34.9234  39.3670 F              1 <1>                0.0000
      4 F4          27.0514  36.9928  39.4030 F              1 <1>                0.0000
      5 C5          29.4375  36.8451  39.5009 C.3            1 <1>                0.0000
      6 C6          30.5753  35.9010  39.1069 C.3            1 <1>                0.0000
      7 C7          29.8635  36.7300  38.0358 C.3            1 <1>                0.0000
      8 C8          30.6297  37.9067  37.4284 C.3            1 <1>                0.0000
      9 S9          31.8297  37.2867  36.2175 S.o2           1 <1>                0.0000
     10 O10         31.2008  36.4016  35.3007 O.2            1 <1>                0.0000
     11 O11         32.6676  38.3399  35.7615 O.2            1 <1>                0.0000
     12 Cl12        33.0615  36.0992  37.2912 Cl             1 <1>                0.0000
     13 H13         29.7031  37.7591  40.0323 H              1 <1>                0.0000
     14 H14         31.5893  36.1939  39.3787 H              1 <1>                0.0000
     15 H15         30.3723  34.8304  39.1321 H              1 <1>                0.0000
     16 H16         29.1924  36.2048  37.3564 H              1 <1>                0.0000
     17 H17         29.9294  38.5799  36.9339 H              1 <1>                0.0000
     18 H18         31.1549  38.4447  38.2177 H              1 <1>                0.0000
@<TRIPOS>BOND
    1    1    2 1     
    2    2    3 1     
    3    2    4 1     
    4    2    5 1     
    5    5    6 1     
    6    5    7 1     
    7    5   13 1     
    8    6    7 1     
    9    6   14 1     
   10    6   15 1     
   11    7    8 1     
   12    7   16 1     
   13    8    9 1     
   14    8   17 1     
   15    8   18 1     
   16    9   10 2     
   17    9   11 2     
   18    9   12 1     
@<TRIPOS>SUBSTRUCTURE
      1 ****           1
@<TRIPOS>COMMENT
> <Gold.Version>
2022.2.0

> <Gold.Id.Protein>
1qkm|1qkm_protein|mol2

> <Gold.Protein.RotatedTorsions>
[  496  491  490  487 ] final  107.14 input  -89.99 | X-H torsion

> <Gold.Protein.ActiveResidues>
 MET295  LEU298  THR299  LEU301  ALA302  GLU305  TRP335  MET336  LEU339  MET340 
 GLY342  LEU343  ARG346  PHE356  ILE373  ILE376  PHE377  LEU380  LYS471  GLY472 
 MET473  HIS475  LEU476  LEU477  ASN478  MET479  VAL484  VAL487 

> <Gold.Protein.RotatedAtoms>
   36.9747   32.9474   41.8016 H   0  0  0  0  0  0  0  0  0  0  0  0  # atno 496  bound_to 491 

> <Gold.Score>
     Score     S(PLP)   S(hbond)     S(cho)   S(metal)  DE(clash)   DE(tors)     intcor
     35.88     -36.02       0.00       0.00       0.00       0.01       1.29       2.46

> <Gold.PLP.Fitness>
35.8849

> <Gold.PLP.PLP>
-36.0207

> <Gold.PLP.part.hbond>
0.0000

> <Gold.PLP.part.metal>
0.0000

> <Gold.PLP.part.buried>
-1.6255

> <Gold.PLP.part.nonpolar>
-34.7785

> <Gold.PLP.part.repulsive>
0.1215

> <Gold.PLP.ligand.clash>
0.0125

> <Gold.PLP.ligand.torsion>
1.2938

> <Gold.PLP.Chemscore.Hbond>
0.0000

> <Gold.PLP.Chemscore.CHOScore>
0.0000

> <Gold.PLP.Chemscore.Metal>
0.0000

> <Gold.PLP.Chemscore.Internal.Correction>
2.4644

