#       Name:                EN300-6766775_i003
#       Creating user name   aseyller
#       Creation time:       Fri Apr 21 18:44:50 2023


#       File generated by GOLD software.
#

@<TRIPOS>MOLECULE
EN300-6766775_i003|Sulfonylchlorides|mol2|624|dock11
    18    18     1
SMALL
USER_CHARGES


@<TRIPOS>ATOM
      1 F1          26.9320  35.8080  40.6459 F              1 <1>                0.0000
      2 C2          27.0583  36.3979  39.3835 C.3            1 <1>                0.0000
      3 F3          27.0302  35.4039  38.3995 F              1 <1>                0.0000
      4 F4          25.9996  37.2887  39.1771 F              1 <1>                0.0000
      5 C5          28.3852  37.1556  39.3052 C.3            1 <1>                0.0000
      6 C6          29.4951  36.7384  40.2721 C.3            1 <1>                0.0000
      7 C7          29.6051  36.3920  38.7858 C.3            1 <1>                0.0000
      8 C8          30.6242  37.1716  37.9524 C.3            1 <1>                0.0000
      9 S9          31.9252  36.0449  37.3792 S.o2           1 <1>                0.0000
     10 O10         31.7959  35.8021  35.9851 O.2            1 <1>                0.0000
     11 O11         33.1782  36.3996  37.9480 O.2            1 <1>                0.0000
     12 Cl12        31.4721  34.2733  38.2375 Cl             1 <1>                0.0000
     13 H13         28.3084  38.2134  39.0534 H              1 <1>                0.0000
     14 H14         30.1488  37.5216  40.6561 H              1 <1>                0.0000
     15 H15         29.2800  35.9241  40.9640 H              1 <1>                0.0000
     16 H16         29.4624  35.3500  38.5000 H              1 <1>                0.0000
     17 H17         30.1250  37.6176  37.0921 H              1 <1>                0.0000
     18 H18         31.0677  37.9580  38.5631 H              1 <1>                0.0000
@<TRIPOS>BOND
    1    1    2 1     
    2    2    3 1     
    3    2    4 1     
    4    2    5 1     
    5    5    6 1     
    6    5    7 1     
    7    5   13 1     
    8    6    7 1     
    9    6   14 1     
   10    6   15 1     
   11    7    8 1     
   12    7   16 1     
   13    8    9 1     
   14    8   17 1     
   15    8   18 1     
   16    9   10 2     
   17    9   11 2     
   18    9   12 1     
@<TRIPOS>SUBSTRUCTURE
      1 ****           1
@<TRIPOS>COMMENT
> <Gold.Version>
2022.2.0

> <Gold.Id.Protein>
1qkm|1qkm_protein|mol2

> <Gold.Protein.RotatedTorsions>
[  496  491  490  487 ] final   76.53 input  -89.99 | X-H torsion

> <Gold.Protein.ActiveResidues>
 MET295  LEU298  THR299  LEU301  ALA302  GLU305  TRP335  MET336  LEU339  MET340 
 GLY342  LEU343  ARG346  PHE356  ILE373  ILE376  PHE377  LEU380  LYS471  GLY472 
 MET473  HIS475  LEU476  LEU477  ASN478  MET479  VAL484  VAL487 

> <Gold.Protein.RotatedAtoms>
   36.6962   33.1320   42.1706 H   0  0  0  0  0  0  0  0  0  0  0  0  # atno 496  bound_to 491 

> <Gold.Score>
     Score     S(PLP)   S(hbond)     S(cho)   S(metal)  DE(clash)   DE(tors)     intcor
     38.19     -39.38       0.00       0.00       0.00       0.00       1.83       2.46

> <Gold.PLP.Fitness>
38.1940

> <Gold.PLP.PLP>
-39.3837

> <Gold.PLP.part.hbond>
0.0000

> <Gold.PLP.part.metal>
0.0000

> <Gold.PLP.part.buried>
-2.8247

> <Gold.PLP.part.nonpolar>
-37.5087

> <Gold.PLP.part.repulsive>
0.0909

> <Gold.PLP.ligand.clash>
0.0000

> <Gold.PLP.ligand.torsion>
1.8271

> <Gold.PLP.Chemscore.Hbond>
0.0000

> <Gold.PLP.Chemscore.CHOScore>
0.0000

> <Gold.PLP.Chemscore.Metal>
0.0000

> <Gold.PLP.Chemscore.Internal.Correction>
2.4644

