#       Name:                EN300-6766775_i003
#       Creating user name   aseyller
#       Creation time:       Fri Apr 21 18:44:45 2023


#       File generated by GOLD software.
#

@<TRIPOS>MOLECULE
EN300-6766775_i003|Sulfonylchlorides|mol2|624|dock3
    18    18     1
SMALL
USER_CHARGES


@<TRIPOS>ATOM
      1 F1          26.0116  37.6027  39.1911 F              1 <1>                0.0000
      2 C2          26.8551  36.5398  39.5323 C.3            1 <1>                0.0000
      3 F3          26.5589  36.1074  40.8294 F              1 <1>                0.0000
      4 F4          26.6629  35.4850  38.6337 F              1 <1>                0.0000
      5 C5          28.3115  37.0043  39.4697 C.3            1 <1>                0.0000
      6 C6          29.3787  35.9464  39.1818 C.3            1 <1>                0.0000
      7 C7          29.0061  36.9694  38.1068 C.3            1 <1>                0.0000
      8 C8          30.0194  38.0744  37.8019 C.3            1 <1>                0.0000
      9 S9          31.2599  37.4519  36.6340 S.o2           1 <1>                0.0000
     10 O10         30.6322  36.7757  35.5533 O.2            1 <1>                0.0000
     11 O11         32.2623  38.4320  36.4018 O.2            1 <1>                0.0000
     12 Cl12        32.2176  35.9903  37.6474 Cl             1 <1>                0.0000
     13 H13         28.5763  37.8144  40.1493 H              1 <1>                0.0000
     14 H14         30.3456  36.0605  39.6717 H              1 <1>                0.0000
     15 H15         29.0431  34.9195  39.0371 H              1 <1>                0.0000
     16 H16         28.4255  36.6156  37.2550 H              1 <1>                0.0000
     17 H17         29.5041  38.9290  37.3633 H              1 <1>                0.0000
     18 H18         30.5111  38.3814  38.7250 H              1 <1>                0.0000
@<TRIPOS>BOND
    1    1    2 1     
    2    2    3 1     
    3    2    4 1     
    4    2    5 1     
    5    5    6 1     
    6    5    7 1     
    7    5   13 1     
    8    6    7 1     
    9    6   14 1     
   10    6   15 1     
   11    7    8 1     
   12    7   16 1     
   13    8    9 1     
   14    8   17 1     
   15    8   18 1     
   16    9   10 2     
   17    9   11 2     
   18    9   12 1     
@<TRIPOS>SUBSTRUCTURE
      1 ****           1
@<TRIPOS>COMMENT
> <Gold.Version>
2022.2.0

> <Gold.Id.Protein>
1qkm|1qkm_protein|mol2

> <Gold.Protein.RotatedTorsions>
[  496  491  490  487 ] final  129.64 input  -89.99 | X-H torsion

> <Gold.Protein.ActiveResidues>
 MET295  LEU298  THR299  LEU301  ALA302  GLU305  TRP335  MET336  LEU339  MET340 
 GLY342  LEU343  ARG346  PHE356  ILE373  ILE376  PHE377  LEU380  LYS471  GLY472 
 MET473  HIS475  LEU476  LEU477  ASN478  MET479  VAL484  VAL487 

> <Gold.Protein.RotatedAtoms>
   37.1506   32.9697   41.4789 H   0  0  0  0  0  0  0  0  0  0  0  0  # atno 496  bound_to 491 

> <Gold.Score>
     Score     S(PLP)   S(hbond)     S(cho)   S(metal)  DE(clash)   DE(tors)     intcor
     37.43     -37.48       0.00       0.00       0.00       0.00       1.26       2.47

> <Gold.PLP.Fitness>
37.4263

> <Gold.PLP.PLP>
-37.4759

> <Gold.PLP.part.hbond>
0.0000

> <Gold.PLP.part.metal>
0.0000

> <Gold.PLP.part.buried>
-2.5236

> <Gold.PLP.part.nonpolar>
-34.9805

> <Gold.PLP.part.repulsive>
0.0521

> <Gold.PLP.ligand.clash>
0.0000

> <Gold.PLP.ligand.torsion>
1.2573

> <Gold.PLP.Chemscore.Hbond>
0.0000

> <Gold.PLP.Chemscore.CHOScore>
0.0000

> <Gold.PLP.Chemscore.Metal>
0.0000

> <Gold.PLP.Chemscore.Internal.Correction>
2.4651

