#       Name:                EN300-6766775_i003
#       Creating user name   aseyller
#       Creation time:       Fri Apr 21 18:44:53 2023


#       File generated by GOLD software.
#

@<TRIPOS>MOLECULE
EN300-6766775_i003|Sulfonylchlorides|mol2|624|dock14
    18    18     1
SMALL
USER_CHARGES


@<TRIPOS>ATOM
      1 F1          31.9023  34.6207  37.8977 F              1 <1>                0.0000
      2 C2          32.3557  35.7779  37.2551 C.3            1 <1>                0.0000
      3 F3          33.6623  36.0592  37.6685 F              1 <1>                0.0000
      4 F4          32.3371  35.5800  35.8704 F              1 <1>                0.0000
      5 C5          31.4430  36.9518  37.6150 C.3            1 <1>                0.0000
      6 C6          30.6488  37.6028  36.4808 C.3            1 <1>                0.0000
      7 C7          29.9327  36.7295  37.5130 C.3            1 <1>                0.0000
      8 C8          29.0439  37.4343  38.5398 C.3            1 <1>                0.0000
      9 S9          28.1776  36.1949  39.5417 S.o2           1 <1>                0.0000
     10 O10         26.7779  36.4401  39.5374 O.2            1 <1>                0.0000
     11 O11         28.6946  34.8963  39.2853 O.2            1 <1>                0.0000
     12 Cl12        28.7472  36.5923  41.4385 Cl             1 <1>                0.0000
     13 H13         31.8038  37.6003  38.4135 H              1 <1>                0.0000
     14 H14         30.4868  38.6794  36.5332 H              1 <1>                0.0000
     15 H15         30.7767  37.1947  35.4782 H              1 <1>                0.0000
     16 H16         29.5893  35.7469  37.1895 H              1 <1>                0.0000
     17 H17         29.6606  38.0580  39.1869 H              1 <1>                0.0000
     18 H18         28.3146  38.0574  38.0222 H              1 <1>                0.0000
@<TRIPOS>BOND
    1    1    2 1     
    2    2    3 1     
    3    2    4 1     
    4    2    5 1     
    5    5    6 1     
    6    5    7 1     
    7    5   13 1     
    8    6    7 1     
    9    6   14 1     
   10    6   15 1     
   11    7    8 1     
   12    7   16 1     
   13    8    9 1     
   14    8   17 1     
   15    8   18 1     
   16    9   10 2     
   17    9   11 2     
   18    9   12 1     
@<TRIPOS>SUBSTRUCTURE
      1 ****           1
@<TRIPOS>COMMENT
> <Gold.Version>
2022.2.0

> <Gold.Id.Protein>
1qkm|1qkm_protein|mol2

> <Gold.Protein.RotatedTorsions>
[  496  491  490  487 ] final   36.90 input  -89.99 | X-H torsion

> <Gold.Protein.ActiveResidues>
 MET295  LEU298  THR299  LEU301  ALA302  GLU305  TRP335  MET336  LEU339  MET340 
 GLY342  LEU343  ARG346  PHE356  ILE373  ILE376  PHE377  LEU380  LYS471  GLY472 
 MET473  HIS475  LEU476  LEU477  ASN478  MET479  VAL484  VAL487 

> <Gold.Protein.RotatedAtoms>
   36.3846   33.6486   42.3826 H   0  0  0  0  0  0  0  0  0  0  0  0  # atno 496  bound_to 491 

> <Gold.Score>
     Score     S(PLP)   S(hbond)     S(cho)   S(metal)  DE(clash)   DE(tors)     intcor
     34.38     -36.91       0.00       0.00       0.00       1.64       1.68       2.46

> <Gold.PLP.Fitness>
34.3795

> <Gold.PLP.PLP>
-36.9137

> <Gold.PLP.part.hbond>
0.0000

> <Gold.PLP.part.metal>
0.0000

> <Gold.PLP.part.buried>
-3.1580

> <Gold.PLP.part.nonpolar>
-34.2616

> <Gold.PLP.part.repulsive>
0.0903

> <Gold.PLP.ligand.clash>
1.6405

> <Gold.PLP.ligand.torsion>
1.6790

> <Gold.PLP.Chemscore.Hbond>
0.0000

> <Gold.PLP.Chemscore.CHOScore>
0.0000

> <Gold.PLP.Chemscore.Metal>
0.0000

> <Gold.PLP.Chemscore.Internal.Correction>
2.4644

