#       Name:                EN300-6766775_i003
#       Creating user name   aseyller
#       Creation time:       Fri Apr 21 18:44:46 2023


#       File generated by GOLD software.
#

@<TRIPOS>MOLECULE
EN300-6766775_i003|Sulfonylchlorides|mol2|624|dock4
    18    18     1
SMALL
USER_CHARGES


@<TRIPOS>ATOM
      1 F1          26.2604  37.5145  38.9263 F              1 <1>                0.0000
      2 C2          27.0932  36.5637  39.5262 C.3            1 <1>                0.0000
      3 F3          26.7000  36.3716  40.8550 F              1 <1>                0.0000
      4 F4          26.9954  35.3535  38.8312 F              1 <1>                0.0000
      5 C5          28.5407  37.0577  39.4889 C.3            1 <1>                0.0000
      6 C6          29.6478  36.0141  39.6506 C.3            1 <1>                0.0000
      7 C7          29.3939  36.6547  38.2845 C.3            1 <1>                0.0000
      8 C8          30.4226  37.6672  37.7770 C.3            1 <1>                0.0000
      9 S9          29.6616  38.7190  36.5101 S.o2           1 <1>                0.0000
     10 O10         30.0176  38.2700  35.2097 O.2            1 <1>                0.0000
     11 O11         28.3092  39.0015  36.8429 O.2            1 <1>                0.0000
     12 Cl12        30.6027  40.4964  36.6985 Cl             1 <1>                0.0000
     13 H13         28.7120  38.0442  39.9200 H              1 <1>                0.0000
     14 H14         30.5476  36.3140  40.1877 H              1 <1>                0.0000
     15 H15         29.3448  34.9756  39.7836 H              1 <1>                0.0000
     16 H16         28.9240  36.0376  37.5188 H              1 <1>                0.0000
     17 H17         30.7629  38.2865  38.6069 H              1 <1>                0.0000
     18 H18         31.2724  37.1372  37.3467 H              1 <1>                0.0000
@<TRIPOS>BOND
    1    1    2 1     
    2    2    3 1     
    3    2    4 1     
    4    2    5 1     
    5    5    6 1     
    6    5    7 1     
    7    5   13 1     
    8    6    7 1     
    9    6   14 1     
   10    6   15 1     
   11    7    8 1     
   12    7   16 1     
   13    8    9 1     
   14    8   17 1     
   15    8   18 1     
   16    9   10 2     
   17    9   11 2     
   18    9   12 1     
@<TRIPOS>SUBSTRUCTURE
      1 ****           1
@<TRIPOS>COMMENT
> <Gold.Version>
2022.2.0

> <Gold.Id.Protein>
1qkm|1qkm_protein|mol2

> <Gold.Protein.RotatedTorsions>
[  496  491  490  487 ] final -127.81 input  -89.99 | X-H torsion

> <Gold.Protein.ActiveResidues>
 MET295  LEU298  THR299  LEU301  ALA302  GLU305  TRP335  MET336  LEU339  MET340 
 GLY342  LEU343  ARG346  PHE356  ILE373  ILE376  PHE377  LEU380  LYS471  GLY472 
 MET473  HIS475  LEU476  LEU477  ASN478  MET479  VAL484  VAL487 

> <Gold.Protein.RotatedAtoms>
   37.0883   34.2516   40.7589 H   0  0  0  0  0  0  0  0  0  0  0  0  # atno 496  bound_to 491 

> <Gold.Score>
     Score     S(PLP)   S(hbond)     S(cho)   S(metal)  DE(clash)   DE(tors)     intcor
     36.79     -37.67       0.00       0.00       0.00       0.00       1.67       2.47

> <Gold.PLP.Fitness>
36.7901

> <Gold.PLP.PLP>
-37.6673

> <Gold.PLP.part.hbond>
0.0000

> <Gold.PLP.part.metal>
0.0000

> <Gold.PLP.part.buried>
-3.2069

> <Gold.PLP.part.nonpolar>
-34.9385

> <Gold.PLP.part.repulsive>
0.0049

> <Gold.PLP.ligand.clash>
0.0000

> <Gold.PLP.ligand.torsion>
1.6711

> <Gold.PLP.Chemscore.Hbond>
0.0000

> <Gold.PLP.Chemscore.CHOScore>
0.0000

> <Gold.PLP.Chemscore.Metal>
0.0000

> <Gold.PLP.Chemscore.Internal.Correction>
2.4651

