#       Name:                EN300-6766775_i003
#       Creating user name   aseyller
#       Creation time:       Fri Apr 21 18:44:51 2023


#       File generated by GOLD software.
#

@<TRIPOS>MOLECULE
EN300-6766775_i003|Sulfonylchlorides|mol2|624|dock12
    18    18     1
SMALL
USER_CHARGES


@<TRIPOS>ATOM
      1 F1          26.4429  37.8293  38.5091 F              1 <1>                0.0000
      2 C2          27.0233  36.7913  39.2460 C.3            1 <1>                0.0000
      3 F3          26.4965  36.7884  40.5420 F              1 <1>                0.0000
      4 F4          26.7455  35.5679  38.6269 F              1 <1>                0.0000
      5 C5          28.5379  36.9975  39.3116 C.3            1 <1>                0.0000
      6 C6          29.4010  35.7858  39.6689 C.3            1 <1>                0.0000
      7 C7          29.3901  36.3213  38.2357 C.3            1 <1>                0.0000
      8 C8          30.6356  37.0653  37.7501 C.3            1 <1>                0.0000
      9 S9          31.9900  35.8831  37.5076 S.o2           1 <1>                0.0000
     10 O10         33.2196  36.4343  37.9590 O.2            1 <1>                0.0000
     11 O11         31.5869  34.5767  37.8948 O.2            1 <1>                0.0000
     12 Cl12        32.2032  35.7650  35.5024 Cl             1 <1>                0.0000
     13 H13         28.8644  37.9724  39.6737 H              1 <1>                0.0000
     14 H14         30.2955  35.9634  40.2658 H              1 <1>                0.0000
     15 H15         28.8897  34.8417  39.8573 H              1 <1>                0.0000
     16 H16         28.8717  35.7296  37.4813 H              1 <1>                0.0000
     17 H17         30.4159  37.5645  36.8063 H              1 <1>                0.0000
     18 H18         30.9291  37.8065  38.4934 H              1 <1>                0.0000
@<TRIPOS>BOND
    1    1    2 1     
    2    2    3 1     
    3    2    4 1     
    4    2    5 1     
    5    5    6 1     
    6    5    7 1     
    7    5   13 1     
    8    6    7 1     
    9    6   14 1     
   10    6   15 1     
   11    7    8 1     
   12    7   16 1     
   13    8    9 1     
   14    8   17 1     
   15    8   18 1     
   16    9   10 2     
   17    9   11 2     
   18    9   12 1     
@<TRIPOS>SUBSTRUCTURE
      1 ****           1
@<TRIPOS>COMMENT
> <Gold.Version>
2022.2.0

> <Gold.Id.Protein>
1qkm|1qkm_protein|mol2

> <Gold.Protein.RotatedTorsions>
[  496  491  490  487 ] final  -80.82 input  -89.99 | X-H torsion

> <Gold.Protein.ActiveResidues>
 MET295  LEU298  THR299  LEU301  ALA302  GLU305  TRP335  MET336  LEU339  MET340 
 GLY342  LEU343  ARG346  PHE356  ILE373  ILE376  PHE377  LEU380  LYS471  GLY472 
 MET473  HIS475  LEU476  LEU477  ASN478  MET479  VAL484  VAL487 

> <Gold.Protein.RotatedAtoms>
   36.6733   34.7029   41.1945 H   0  0  0  0  0  0  0  0  0  0  0  0  # atno 496  bound_to 491 

> <Gold.Score>
     Score     S(PLP)   S(hbond)     S(cho)   S(metal)  DE(clash)   DE(tors)     intcor
     38.36     -38.71       0.00       0.00       0.00       0.00       1.41       2.46

> <Gold.PLP.Fitness>
38.3585

> <Gold.PLP.PLP>
-38.7090

> <Gold.PLP.part.hbond>
0.0000

> <Gold.PLP.part.metal>
0.0000

> <Gold.PLP.part.buried>
-3.1480

> <Gold.PLP.part.nonpolar>
-36.1437

> <Gold.PLP.part.repulsive>
0.0836

> <Gold.PLP.ligand.clash>
0.0000

> <Gold.PLP.ligand.torsion>
1.4075

> <Gold.PLP.Chemscore.Hbond>
0.0000

> <Gold.PLP.Chemscore.CHOScore>
0.0000

> <Gold.PLP.Chemscore.Metal>
0.0000

> <Gold.PLP.Chemscore.Internal.Correction>
2.4644

