#       Name:                EN300-6766775_i003
#       Creating user name   aseyller
#       Creation time:       Fri Apr 21 18:44:52 2023


#       File generated by GOLD software.
#

@<TRIPOS>MOLECULE
EN300-6766775_i003|Sulfonylchlorides|mol2|624|dock13
    18    18     1
SMALL
USER_CHARGES


@<TRIPOS>ATOM
      1 F1          28.4985  36.1370  41.3370 F              1 <1>                0.0000
      2 C2          28.2536  36.2011  39.9611 C.3            1 <1>                0.0000
      3 F3          28.2301  34.9067  39.4308 F              1 <1>                0.0000
      4 F4          27.0194  36.8200  39.7356 F              1 <1>                0.0000
      5 C5          29.3612  37.0099  39.2831 C.3            1 <1>                0.0000
      6 C6          30.5990  36.2492  38.8035 C.3            1 <1>                0.0000
      7 C7          29.5874  36.7825  37.7870 C.3            1 <1>                0.0000
      8 C8          30.0026  37.9896  36.9438 C.3            1 <1>                0.0000
      9 S9          31.4464  37.5550  35.9353 S.o2           1 <1>                0.0000
     10 O10         32.6386  37.6555  36.7021 O.2            1 <1>                0.0000
     11 O11         31.1765  36.4030  35.1484 O.2            1 <1>                0.0000
     12 Cl12        31.5915  39.0547  34.5898 Cl             1 <1>                0.0000
     13 H13         29.5083  38.0196  39.6669 H              1 <1>                0.0000
     14 H14         31.5604  36.7583  38.8714 H              1 <1>                0.0000
     15 H15         30.6242  35.1725  38.9711 H              1 <1>                0.0000
     16 H16         28.9471  36.0566  37.2859 H              1 <1>                0.0000
     17 H17         29.1780  38.2786  36.2921 H              1 <1>                0.0000
     18 H18         30.2554  38.8220  37.6006 H              1 <1>                0.0000
@<TRIPOS>BOND
    1    1    2 1     
    2    2    3 1     
    3    2    4 1     
    4    2    5 1     
    5    5    6 1     
    6    5    7 1     
    7    5   13 1     
    8    6    7 1     
    9    6   14 1     
   10    6   15 1     
   11    7    8 1     
   12    7   16 1     
   13    8    9 1     
   14    8   17 1     
   15    8   18 1     
   16    9   10 2     
   17    9   11 2     
   18    9   12 1     
@<TRIPOS>SUBSTRUCTURE
      1 ****           1
@<TRIPOS>COMMENT
> <Gold.Version>
2022.2.0

> <Gold.Id.Protein>
1qkm|1qkm_protein|mol2

> <Gold.Protein.RotatedTorsions>
[  496  491  490  487 ] final  -20.47 input  -89.99 | X-H torsion

> <Gold.Protein.ActiveResidues>
 MET295  LEU298  THR299  LEU301  ALA302  GLU305  TRP335  MET336  LEU339  MET340 
 GLY342  LEU343  ARG346  PHE356  ILE373  ILE376  PHE377  LEU380  LYS471  GLY472 
 MET473  HIS475  LEU476  LEU477  ASN478  MET479  VAL484  VAL487 

> <Gold.Protein.RotatedAtoms>
   36.2821   34.4752   42.0276 H   0  0  0  0  0  0  0  0  0  0  0  0  # atno 496  bound_to 491 

> <Gold.Score>
     Score     S(PLP)   S(hbond)     S(cho)   S(metal)  DE(clash)   DE(tors)     intcor
     35.03     -35.50       0.00       0.00       0.00       0.00       1.47       2.46

> <Gold.PLP.Fitness>
35.0258

> <Gold.PLP.PLP>
-35.4969

> <Gold.PLP.part.hbond>
0.0000

> <Gold.PLP.part.metal>
0.0000

> <Gold.PLP.part.buried>
-2.6380

> <Gold.PLP.part.nonpolar>
-33.7968

> <Gold.PLP.part.repulsive>
0.0833

> <Gold.PLP.ligand.clash>
0.0000

> <Gold.PLP.ligand.torsion>
1.4678

> <Gold.PLP.Chemscore.Hbond>
0.0000

> <Gold.PLP.Chemscore.CHOScore>
0.0000

> <Gold.PLP.Chemscore.Metal>
0.0000

> <Gold.PLP.Chemscore.Internal.Correction>
2.4644

