#       Name:                plp ligand
#       Creating user name   aseyller
#       Creation time:       Fri Apr 21 18:44:44 2023


#       File generated by GOLD software.
#

@<TRIPOS>MOLECULE
plp ligand
    18    18     1
SMALL
USER_CHARGES


@<TRIPOS>ATOM
      1 F1          -3.6651  -0.5088  -0.6858 NONPOLAR       1 <1>                0.0000
      2 C2          -2.5648  -0.5165   0.1783 NONPOLAR       1 <1>                0.0000
      3 F3          -2.8249   0.3163   1.2719 NONPOLAR       1 <1>                0.0000
      4 F4          -2.3353  -1.8207   0.6294 NONPOLAR       1 <1>                0.0000
      5 C5          -1.3282  -0.0093  -0.5662 NONPOLAR       1 <1>                0.0000
      6 C6          -0.7565   1.3460  -0.1452 NONPOLAR       1 <1>                0.0000
      7 C7          -0.0128   0.0576   0.2125 NONPOLAR       1 <1>                0.0000
      8 C8           1.2768  -0.2490  -0.5515 NONPOLAR       1 <1>                0.0000
      9 S9           2.6767  -0.2531   0.6021 NONPOLAR       1 <1>                0.0000
     10 O10          2.9255   1.0586   1.0888 ACCEPTOR       1 <1>                0.0000
     11 O11          2.5882  -1.3593   1.4897 ACCEPTOR       1 <1>                0.0000
     12 Cl12         4.2808  -0.6684  -0.5532 NONPOLAR       1 <1>                0.0000
     13 H13         -1.2751  -0.2716  -1.6229                1 <1>                0.0000
     14 H14         -0.3270   1.9752  -0.9247                1 <1>                0.0000
     15 H15         -1.2615   1.8763   0.6622                1 <1>                0.0000
     16 H16         -0.0285  -0.2597   1.2551                1 <1>                0.0000
     17 H17          1.1943  -1.2268  -1.0261                1 <1>                0.0000
     18 H18          1.4370   0.5128  -1.3145                1 <1>                0.0000
@<TRIPOS>BOND
    1    1    2 1     
    2    2    3 1     
    3    2    4 1     
    4    2    5 1     
    5    5    6 1     
    6    5    7 1     
    7    5   13 1     
    8    6    7 1     
    9    6   14 1     
   10    6   15 1     
   11    7    8 1     
   12    7   16 1     
   13    8    9 1     
   14    8   17 1     
   15    8   18 1     
   16    9   10 2     
   17    9   11 2     
   18    9   12 1     
@<TRIPOS>SUBSTRUCTURE
      1 ****           1
@<TRIPOS>SET
DONOR_HYDROGENS      STATIC     ATOMS    <user>   **** ""
0
ATOM$RED        STATIC     ATOMS    COLORGROUP SYSTEM
0
