#       Name:                EN300-1719111_i001
#       Creating user name   fsindt
#       Creation time:       Thu Mar  2 00:30:18 2023


#       File generated by GOLD software.
#

@<TRIPOS>MOLECULE
EN300-1719111_i001|acide_1|mol2|10811|dock9
    40    42     1
SMALL
USER_CHARGES


@<TRIPOS>ATOM
      1 C1          -0.0981 -10.8321  10.7319 C.3            1 <1>                0.0000
      2 C2          -0.8724 -11.7916   9.8259 C.3            1 <1>                0.0000
      3 C3          -2.3743 -11.5570   9.9998 C.3            1 <1>                0.0000
      4 C4          -0.4828 -11.5423   8.3675 C.3            1 <1>                0.0000
      5 O5          -0.5517 -13.1615  10.1851 O.3            1 <1>                0.0000
      6 C6          -0.6927 -13.5028  11.4798 C.2            1 <1>                0.0000
      7 O7          -1.3282 -12.7892  12.2306 O.2            1 <1>                0.0000
      8 N8          -0.1291 -14.6360  11.9433 N.am           1 <1>                0.0000
      9 C9          -0.0596 -15.3267  13.2447 C.3            1 <1>                0.0000
     10 C10          0.1550 -16.6092  12.4732 C.3            1 <1>                0.0000
     11 C11          0.6803 -15.7263  11.3673 C.3            1 <1>                0.0000
     12 O12         -0.9754 -17.4435  12.1994 O.3            1 <1>                0.0000
     13 C13         -0.4978 -18.7507  12.6593 C.3            1 <1>                0.0000
     14 C14         -1.4652 -19.9311  12.5505 C.3            1 <1>                0.0000
     15 C15          0.1911 -18.4436  14.0129 C.3            1 <1>                0.0000
     16 C16          1.1433 -17.6379  13.0824 C.3            1 <1>                0.0000
     17 C17          0.9778 -18.9402  12.1997 C.3            1 <1>                0.0000
     18 C18          2.4947 -17.1639  13.5513 C.2            1 <1>                0.0000
     19 O19          2.6580 -16.8441  14.7165 O.co2          1 <1>                0.0000
     20 O20          3.4247 -17.1002  12.7655 O.co2          1 <1>               -1.0000
     21 H21         -0.3757 -11.0098  11.7708 H              1 <1>                0.0000
     22 H22          0.9719 -10.9993  10.6080 H              1 <1>                0.0000
     23 H23         -0.3389  -9.8038  10.4622 H              1 <1>                0.0000
     24 H24         -2.6150 -10.5287   9.7301 H              1 <1>                0.0000
     25 H25         -2.9259 -12.2406   9.3544 H              1 <1>                0.0000
     26 H26         -2.6519 -11.7347  11.0388 H              1 <1>                0.0000
     27 H27          0.5871 -11.7094   8.2436 H              1 <1>                0.0000
     28 H28         -1.0344 -12.2258   7.7221 H              1 <1>                0.0000
     29 H29         -0.7236 -10.5139   8.0978 H              1 <1>                0.0000
     30 H30          0.7985 -15.0327  13.8490 H              1 <1>                0.0000
     31 H31         -0.9970 -15.3041  13.8007 H              1 <1>                0.0000
     32 H32          0.3569 -16.0342  10.3730 H              1 <1>                0.0000
     33 H33          1.7535 -15.5451  11.4267 H              1 <1>                0.0000
     34 H34         -1.8079 -20.0261  11.5202 H              1 <1>                0.0000
     35 H35         -0.9559 -20.8470  12.8500 H              1 <1>                0.0000
     36 H36         -2.3209 -19.7608  13.2040 H              1 <1>                0.0000
     37 H37         -0.4010 -17.8317  14.6935 H              1 <1>                0.0000
     38 H38          0.6513 -19.3074  14.4927 H              1 <1>                0.0000
     39 H39          1.4676 -19.8267  12.6025 H              1 <1>                0.0000
     40 H40          1.1524 -18.7914  11.1342 H              1 <1>                0.0000
@<TRIPOS>BOND
    1    1    2 1     
    2    1   21 1     
    3    1   22 1     
    4    1   23 1     
    5    2    3 1     
    6    2    4 1     
    7    2    5 1     
    8    3   24 1     
    9    3   25 1     
   10    3   26 1     
   11    4   27 1     
   12    4   28 1     
   13    4   29 1     
   14    5    6 1     
   15    6    7 2     
   16    6    8 am    
   17    8    9 1     
   18    8   11 1     
   19    9   10 1     
   20    9   30 1     
   21    9   31 1     
   22   10   11 1     
   23   10   12 1     
   24   10   16 1     
   25   11   32 1     
   26   11   33 1     
   27   12   13 1     
   28   13   14 1     
   29   13   15 1     
   30   13   17 1     
   31   14   34 1     
   32   14   35 1     
   33   14   36 1     
   34   15   16 1     
   35   15   37 1     
   36   15   38 1     
   37   16   17 1     
   38   16   18 1     
   39   17   39 1     
   40   17   40 1     
   41   18   19 ar    
   42   18   20 ar    
@<TRIPOS>SUBSTRUCTURE
      1 ****           1
@<TRIPOS>COMMENT
> <Gold.Version>
2022.2.0

> <Gold.Id.Protein>
3pbl|protein|mol2

> <Gold.Protein.RotatedTorsions>
[ 1303 1298 1297 1294 ] final -154.34 input  179.99 | X-H torsion
[ 2461 2456 2455 2452 ] final  150.12 input   30.03 | X-H torsion
[ 2515 2510 2509 2506 ] final   38.35 input  -89.99 | X-H torsion
[ 3721 3712 3711 3710 ] final   97.88 input -179.91 | X-H torsion
[ 3841 3832 3831 3830 ] final  104.37 input -179.91 | X-H torsion
[ 3767 3762 3761 3758 ] final -112.73 input  -89.99 | X-H torsion
[ 2472 2467 2466 2463 ] final    7.12 input  -89.97 | X-H torsion

> <Gold.Protein.ActiveResidues>
 VAL82   VAL86   LEU89   PHE106  VAL107  ASP110  VAL111  MET112  CYS114  THR115 
 CYS181  SER182  ILE183  PHE188  VAL189  ILE190  SER192  SER193  SER196  TRP342 
 PHE345  PHE346  HIS349  VAL350  TYR365  THR369  GLY372  TYR373 

> <Gold.Protein.RotatedAtoms>
    4.6551   -8.6006    4.4356 H   0  0  0  0  0  0  0  0  0  0  0  0  # atno 1303 bound_to 1298
    1.8681   -8.9835    8.3137 H   0  0  0  0  0  0  0  0  0  0  0  0  # atno 2461 bound_to 2456
   -3.8693   -4.8516    7.9837 H   0  0  0  0  0  0  0  0  0  0  0  0  # atno 2472 bound_to 2467
    2.2764   -7.4092    5.1227 H   0  0  0  0  0  0  0  0  0  0  0  0  # atno 2515 bound_to 2510
   -2.8422  -17.5195   13.0638 H   0  0  0  0  0  0  0  0  0  0  0  0  # atno 3721 bound_to 3712
   -4.9475  -21.9392   11.4587 H   0  0  0  0  0  0  0  0  0  0  0  0  # atno 3767 bound_to 3762
    2.9784  -20.8470    9.1123 H   0  0  0  0  0  0  0  0  0  0  0  0  # atno 3841 bound_to 3832
    4.3586  -10.1565    4.8326 LP  0  0  0  0  0  0  0  0  0  0  0  0  # atno 4297 bound_to 1298
    3.3483   -9.3645    3.8233 LP  0  0  0  0  0  0  0  0  0  0  0  0  # atno 4298 bound_to 1298
    1.5164   -7.9183    7.1267 LP  0  0  0  0  0  0  0  0  0  0  0  0  # atno 4299 bound_to 2456
    0.3534   -8.9064    7.7079 LP  0  0  0  0  0  0  0  0  0  0  0  0  # atno 4300 bound_to 2456
    2.8326   -8.8239    4.5267 LP  0  0  0  0  0  0  0  0  0  0  0  0  # atno 4301 bound_to 2510
    2.1878   -8.7665    6.0259 LP  0  0  0  0  0  0  0  0  0  0  0  0  # atno 4302 bound_to 2510
   -2.7178  -17.9228   14.6129 LP  0  0  0  0  0  0  0  0  0  0  0  0  # atno 4306 bound_to 3712
   -3.5285  -16.5770   14.1677 LP  0  0  0  0  0  0  0  0  0  0  0  0  # atno 4307 bound_to 3712
    1.4525  -20.4143    9.3580 LP  0  0  0  0  0  0  0  0  0  0  0  0  # atno 4314 bound_to 3832
    2.3363  -19.7095    8.1796 LP  0  0  0  0  0  0  0  0  0  0  0  0  # atno 4315 bound_to 3832
   -3.9268  -23.1301   11.0041 LP  0  0  0  0  0  0  0  0  0  0  0  0  # atno 4318 bound_to 3762
   -5.2532  -22.8056   10.1086 LP  0  0  0  0  0  0  0  0  0  0  0  0  # atno 4319 bound_to 3762
   -4.3861   -5.4261    9.4223 LP  0  0  0  0  0  0  0  0  0  0  0  0  # atno 4320 bound_to 2467
   -5.4613   -5.1158    8.2331 LP  0  0  0  0  0  0  0  0  0  0  0  0  # atno 4321 bound_to 2467

> <Gold.Score>
     Score     S(PLP)   S(hbond)     S(cho)   S(metal)  DE(clash)   DE(tors)     intcor
     42.88     -41.86       0.81       0.00       0.00       0.00       1.11       0.82

> <Gold.PLP.Fitness>
42.8779

> <Gold.PLP.PLP>
-41.8564

> <Gold.PLP.part.hbond>
-2.0000

> <Gold.PLP.part.metal>
0.0000

> <Gold.PLP.part.buried>
-1.5696

> <Gold.PLP.part.nonpolar>
-40.5977

> <Gold.PLP.part.repulsive>
0.3823

> <Gold.PLP.ligand.clash>
0.0000

> <Gold.PLP.ligand.torsion>
1.1092

> <Gold.PLP.Chemscore.Hbond>
0.8064

> <Gold.PLP.Chemscore.CHOScore>
0.0000

> <Gold.PLP.Chemscore.Metal>
0.0000

> <Gold.Chemscore.Hbonds>
donor molecule, donor type, donor heavy atom, donor atom, acceptor molecule, acceptor atom, score
      P1  H  3712  3721       L1    12  0.81

> <Gold.PLP.Chemscore.Internal.Correction>
0.8209

