#       Name:                EN300-1719111_i001
#       Creating user name   fsindt
#       Creation time:       Thu Mar  2 00:30:21 2023


#       File generated by GOLD software.
#

@<TRIPOS>MOLECULE
EN300-1719111_i001|acide_1|mol2|10811|dock12
    40    42     1
SMALL
USER_CHARGES


@<TRIPOS>ATOM
      1 C1          -3.5631 -10.6833  10.9308 C.3            1 <1>                0.0000
      2 C2          -2.1416 -11.0642  10.5121 C.3            1 <1>                0.0000
      3 C3          -2.0974 -11.2845   8.9987 C.3            1 <1>                0.0000
      4 C4          -1.1789  -9.9373  10.8918 C.3            1 <1>                0.0000
      5 O5          -1.7481 -12.2861  11.1907 O.3            1 <1>                0.0000
      6 C6          -0.6045 -12.8695  10.7851 C.2            1 <1>                0.0000
      7 O7           0.2128 -12.2300  10.1530 O.2            1 <1>                0.0000
      8 N8          -0.3662 -14.1628  11.0803 N.am           1 <1>                0.0000
      9 C9           0.7245 -15.1221  10.8240 C.3            1 <1>                0.0000
     10 C10          0.2655 -15.8659  12.0577 C.3            1 <1>                0.0000
     11 C11         -1.0802 -15.2306  11.8052 C.3            1 <1>                0.0000
     12 O12          0.9205 -15.6013  13.3027 O.3            1 <1>                0.0000
     13 C13          1.2443 -16.9553  13.7613 C.3            1 <1>                0.0000
     14 C14          1.9955 -17.0878  15.0876 C.3            1 <1>                0.0000
     15 C15          1.7914 -17.6598  12.4942 C.3            1 <1>                0.0000
     16 C16          0.3331 -17.4148  12.0095 C.3            1 <1>                0.0000
     17 C17          0.0267 -17.8865  13.4880 C.3            1 <1>                0.0000
     18 C18         -0.2352 -18.1342  10.8134 C.2            1 <1>                0.0000
     19 O19         -0.7016 -17.4976   9.8840 O.co2          1 <1>                0.0000
     20 O20         -0.2286 -19.3528  10.7753 O.co2          1 <1>               -1.0000
     21 H21         -4.2489 -11.4861  10.6603 H              1 <1>                0.0000
     22 H22         -3.5946 -10.5264  12.0090 H              1 <1>                0.0000
     23 H23         -3.8584  -9.7661  10.4213 H              1 <1>                0.0000
     24 H24         -2.3927 -10.3672   8.4893 H              1 <1>                0.0000
     25 H25         -1.0847 -11.5558   8.7005 H              1 <1>                0.0000
     26 H26         -2.7832 -12.0873   8.7282 H              1 <1>                0.0000
     27 H27         -1.2103  -9.7804  11.9700 H              1 <1>                0.0000
     28 H28         -0.1662 -10.2086  10.5936 H              1 <1>                0.0000
     29 H29         -1.4743  -9.0200  10.3824 H              1 <1>                0.0000
     30 H30          0.5989 -15.6887   9.9014 H              1 <1>                0.0000
     31 H31          1.7193 -14.6873  10.9220 H              1 <1>                0.0000
     32 H32         -1.5775 -14.8877  12.7126 H              1 <1>                0.0000
     33 H33         -1.7305 -15.8268  11.1651 H              1 <1>                0.0000
     34 H34          1.4394 -16.5758  15.8728 H              1 <1>                0.0000
     35 H35          2.0980 -18.1424  15.3433 H              1 <1>                0.0000
     36 H36          2.9845 -16.6396  14.9913 H              1 <1>                0.0000
     37 H37          2.5493 -17.0933  11.9531 H              1 <1>                0.0000
     38 H38          2.0508 -18.7090  12.6361 H              1 <1>                0.0000
     39 H39          0.2139 -18.9439  13.6750 H              1 <1>                0.0000
     40 H40         -0.9236 -17.5340  13.8890 H              1 <1>                0.0000
@<TRIPOS>BOND
    1    1    2 1     
    2    1   21 1     
    3    1   22 1     
    4    1   23 1     
    5    2    3 1     
    6    2    4 1     
    7    2    5 1     
    8    3   24 1     
    9    3   25 1     
   10    3   26 1     
   11    4   27 1     
   12    4   28 1     
   13    4   29 1     
   14    5    6 1     
   15    6    7 2     
   16    6    8 am    
   17    8    9 1     
   18    8   11 1     
   19    9   10 1     
   20    9   30 1     
   21    9   31 1     
   22   10   11 1     
   23   10   12 1     
   24   10   16 1     
   25   11   32 1     
   26   11   33 1     
   27   12   13 1     
   28   13   14 1     
   29   13   15 1     
   30   13   17 1     
   31   14   34 1     
   32   14   35 1     
   33   14   36 1     
   34   15   16 1     
   35   15   37 1     
   36   15   38 1     
   37   16   17 1     
   38   16   18 1     
   39   17   39 1     
   40   17   40 1     
   41   18   19 ar    
   42   18   20 ar    
@<TRIPOS>SUBSTRUCTURE
      1 ****           1
@<TRIPOS>COMMENT
> <Gold.Version>
2022.2.0

> <Gold.Id.Protein>
3pbl|protein|mol2

> <Gold.Protein.RotatedTorsions>
[ 1303 1298 1297 1294 ] final   11.42 input  179.99 | X-H torsion
[ 2461 2456 2455 2452 ] final -156.72 input   30.03 | X-H torsion
[ 2515 2510 2509 2506 ] final   -1.15 input  -89.99 | X-H torsion
[ 3721 3712 3711 3710 ] final   83.33 input -179.91 | X-H torsion
[ 3841 3832 3831 3830 ] final  169.44 input -179.91 | X-H torsion
[ 3767 3762 3761 3758 ] final   64.50 input  -89.99 | X-H torsion
[ 2472 2467 2466 2463 ] final -101.77 input  -89.97 | X-H torsion

> <Gold.Protein.ActiveResidues>
 VAL82   VAL86   LEU89   PHE106  VAL107  ASP110  VAL111  MET112  CYS114  THR115 
 CYS181  SER182  ILE183  PHE188  VAL189  ILE190  SER192  SER193  SER196  TRP342 
 PHE345  PHE346  HIS349  VAL350  TYR365  THR369  GLY372  TYR373 

> <Gold.Protein.RotatedAtoms>
    3.4589  -10.0105    4.1515 H   0  0  0  0  0  0  0  0  0  0  0  0  # atno 1303 bound_to 1298
    1.0815   -9.2878    8.3430 H   0  0  0  0  0  0  0  0  0  0  0  0  # atno 2461 bound_to 2456
   -4.2125   -5.3918    9.3779 H   0  0  0  0  0  0  0  0  0  0  0  0  # atno 2472 bound_to 2467
    2.5487   -7.6413    4.5957 H   0  0  0  0  0  0  0  0  0  0  0  0  # atno 2515 bound_to 2510
   -2.7362  -17.6912   13.1498 H   0  0  0  0  0  0  0  0  0  0  0  0  # atno 3721 bound_to 3712
   -4.5075  -23.3004   10.2306 H   0  0  0  0  0  0  0  0  0  0  0  0  # atno 3767 bound_to 3762
    3.0382  -20.1734    8.4722 H   0  0  0  0  0  0  0  0  0  0  0  0  # atno 3841 bound_to 3832
    4.0761   -8.5067    3.9962 LP  0  0  0  0  0  0  0  0  0  0  0  0  # atno 4297 bound_to 1298
    4.8274   -9.6038    4.9440 LP  0  0  0  0  0  0  0  0  0  0  0  0  # atno 4298 bound_to 1298
    2.1079   -8.2280    7.6425 LP  0  0  0  0  0  0  0  0  0  0  0  0  # atno 4299 bound_to 2456
    0.5483   -8.2927    7.1628 LP  0  0  0  0  0  0  0  0  0  0  0  0  # atno 4300 bound_to 2456
    2.7087   -9.2103    5.0180 LP  0  0  0  0  0  0  0  0  0  0  0  0  # atno 4301 bound_to 2510
    2.0392   -8.1479    6.0619 LP  0  0  0  0  0  0  0  0  0  0  0  0  # atno 4302 bound_to 2510
   -2.8067  -17.7459   14.7529 LP  0  0  0  0  0  0  0  0  0  0  0  0  # atno 4306 bound_to 3712
   -3.5620  -16.5557   13.9285 LP  0  0  0  0  0  0  0  0  0  0  0  0  # atno 4307 bound_to 3712
    2.2134  -21.0944    9.4957 LP  0  0  0  0  0  0  0  0  0  0  0  0  # atno 4314 bound_to 3832
    1.5063  -19.8075    8.7813 LP  0  0  0  0  0  0  0  0  0  0  0  0  # atno 4315 bound_to 3832
   -5.4823  -22.0967   10.7481 LP  0  0  0  0  0  0  0  0  0  0  0  0  # atno 4318 bound_to 3762
   -4.1375  -22.4782   11.5922 LP  0  0  0  0  0  0  0  0  0  0  0  0  # atno 4319 bound_to 3762
   -5.5022   -5.1801    8.3990 LP  0  0  0  0  0  0  0  0  0  0  0  0  # atno 4320 bound_to 2467
   -4.0022   -4.8217    7.8623 LP  0  0  0  0  0  0  0  0  0  0  0  0  # atno 4321 bound_to 2467

> <Gold.Score>
     Score     S(PLP)   S(hbond)     S(cho)   S(metal)  DE(clash)   DE(tors)     intcor
     41.94     -42.25       0.00       0.00       0.00       0.00       0.56       0.82

> <Gold.PLP.Fitness>
41.9431

> <Gold.PLP.PLP>
-42.2489

> <Gold.PLP.part.hbond>
0.0000

> <Gold.PLP.part.metal>
0.0000

> <Gold.PLP.part.buried>
-2.1577

> <Gold.PLP.part.nonpolar>
-41.1193

> <Gold.PLP.part.repulsive>
0.2522

> <Gold.PLP.ligand.clash>
0.0000

> <Gold.PLP.ligand.torsion>
0.5634

> <Gold.PLP.Chemscore.Hbond>
0.0000

> <Gold.PLP.Chemscore.CHOScore>
0.0000

> <Gold.PLP.Chemscore.Metal>
0.0000

> <Gold.PLP.Chemscore.Internal.Correction>
0.8209

