#       Name:                EN300-1719111_i001
#       Creating user name   fsindt
#       Creation time:       Thu Mar  2 00:30:11 2023


#       File generated by GOLD software.
#

@<TRIPOS>MOLECULE
EN300-1719111_i001|acide_1|mol2|10811|dock1
    40    42     1
SMALL
USER_CHARGES


@<TRIPOS>ATOM
      1 C1           1.5723 -18.5273  12.9065 C.3            1 <1>                0.0000
      2 C2           1.3197 -17.5228  14.0326 C.3            1 <1>                0.0000
      3 C3           0.1523 -18.0065  14.8952 C.3            1 <1>                0.0000
      4 C4           2.5759 -17.3994  14.8973 C.3            1 <1>                0.0000
      5 O5           0.9957 -16.2275  13.4621 O.3            1 <1>                0.0000
      6 C6           0.0469 -16.2002  12.5072 C.2            1 <1>                0.0000
      7 O7          -0.8492 -17.0209  12.5175 O.2            1 <1>                0.0000
      8 N8           0.0910 -15.2626  11.5400 N.am           1 <1>                0.0000
      9 C9          -0.7308 -14.9162  10.3652 C.3            1 <1>                0.0000
     10 C10         -0.2006 -13.5065  10.4978 C.3            1 <1>                0.0000
     11 C11          0.9783 -14.1342  11.2012 C.3            1 <1>                0.0000
     12 O12         -0.9835 -12.5423  11.2093 O.3            1 <1>                0.0000
     13 C13         -1.0199 -11.4286  10.2570 C.3            1 <1>                0.0000
     14 C14         -1.8111 -10.1830  10.6614 C.3            1 <1>                0.0000
     15 C15         -1.3020 -12.1096   8.8940 C.3            1 <1>                0.0000
     16 C16          0.0915 -12.7395   9.1816 C.3            1 <1>                0.0000
     17 C17          0.3944 -11.2530   9.6299 C.3            1 <1>                0.0000
     18 C18          0.8910 -13.4207   8.1008 C.2            1 <1>                0.0000
     19 O19          1.0919 -12.8522   7.0411 O.co2          1 <1>                0.0000
     20 O20          1.3369 -14.5402   8.2864 O.co2          1 <1>               -1.0000
     21 H21          0.6774 -18.6152  12.2905 H              1 <1>                0.0000
     22 H22          2.4040 -18.1827  12.2920 H              1 <1>                0.0000
     23 H23          1.8155 -19.4997  13.3349 H              1 <1>                0.0000
     24 H24          0.3955 -18.9789  15.3235 H              1 <1>                0.0000
     25 H25         -0.0277 -17.2909  15.6974 H              1 <1>                0.0000
     26 H26         -0.7426 -18.0944  14.2792 H              1 <1>                0.0000
     27 H27          3.4076 -17.0548  14.2828 H              1 <1>                0.0000
     28 H28          2.3959 -16.6838  15.6995 H              1 <1>                0.0000
     29 H29          2.8191 -18.3718  15.3256 H              1 <1>                0.0000
     30 H30         -0.4152 -15.4163   9.4496 H              1 <1>                0.0000
     31 H31         -1.8031 -14.9972  10.5441 H              1 <1>                0.0000
     32 H32          1.3197 -13.5692  12.0685 H              1 <1>                0.0000
     33 H33          1.7906 -14.4103  10.5289 H              1 <1>                0.0000
     34 H34         -1.4427  -9.8135  11.6184 H              1 <1>                0.0000
     35 H35         -1.6869  -9.4113   9.9017 H              1 <1>                0.0000
     36 H36         -2.8672 -10.4371  10.7521 H              1 <1>                0.0000
     37 H37         -2.1300 -12.8184   8.9050 H              1 <1>                0.0000
     38 H38         -1.3237 -11.4280   8.0435 H              1 <1>                0.0000
     39 H39          0.4417 -10.5333   8.8127 H              1 <1>                0.0000
     40 H40          1.2087 -11.1525  10.3475 H              1 <1>                0.0000
@<TRIPOS>BOND
    1    1    2 1     
    2    1   21 1     
    3    1   22 1     
    4    1   23 1     
    5    2    3 1     
    6    2    4 1     
    7    2    5 1     
    8    3   24 1     
    9    3   25 1     
   10    3   26 1     
   11    4   27 1     
   12    4   28 1     
   13    4   29 1     
   14    5    6 1     
   15    6    7 2     
   16    6    8 am    
   17    8    9 1     
   18    8   11 1     
   19    9   10 1     
   20    9   30 1     
   21    9   31 1     
   22   10   11 1     
   23   10   12 1     
   24   10   16 1     
   25   11   32 1     
   26   11   33 1     
   27   12   13 1     
   28   13   14 1     
   29   13   15 1     
   30   13   17 1     
   31   14   34 1     
   32   14   35 1     
   33   14   36 1     
   34   15   16 1     
   35   15   37 1     
   36   15   38 1     
   37   16   17 1     
   38   16   18 1     
   39   17   39 1     
   40   17   40 1     
   41   18   19 ar    
   42   18   20 ar    
@<TRIPOS>SUBSTRUCTURE
      1 ****           1
@<TRIPOS>COMMENT
> <Gold.Version>
2022.2.0

> <Gold.Id.Protein>
3pbl|protein|mol2

> <Gold.Protein.RotatedTorsions>
[ 1303 1298 1297 1294 ] final  -67.11 input  179.99 | X-H torsion
[ 2461 2456 2455 2452 ] final  132.85 input   30.03 | X-H torsion
[ 2515 2510 2509 2506 ] final  123.23 input  -89.99 | X-H torsion
[ 3721 3712 3711 3710 ] final   82.81 input -179.91 | X-H torsion
[ 3841 3832 3831 3830 ] final -155.25 input -179.91 | X-H torsion
[ 3767 3762 3761 3758 ] final  -54.09 input  -89.99 | X-H torsion
[ 2472 2467 2466 2463 ] final   -2.43 input  -89.97 | X-H torsion

> <Gold.Protein.ActiveResidues>
 VAL82   VAL86   LEU89   PHE106  VAL107  ASP110  VAL111  MET112  CYS114  THR115 
 CYS181  SER182  ILE183  PHE188  VAL189  ILE190  SER192  SER193  SER196  TRP342 
 PHE345  PHE346  HIS349  VAL350  TYR365  THR369  GLY372  TYR373 

> <Gold.Protein.RotatedAtoms>
    3.5639   -8.8796    3.7856 H   0  0  0  0  0  0  0  0  0  0  0  0  # atno 1303 bound_to 1298
    2.0395   -8.7970    8.1872 H   0  0  0  0  0  0  0  0  0  0  0  0  # atno 2461 bound_to 2456
   -3.7761   -4.8852    8.1054 H   0  0  0  0  0  0  0  0  0  0  0  0  # atno 2472 bound_to 2467
    2.0478   -8.2176    6.0778 H   0  0  0  0  0  0  0  0  0  0  0  0  # atno 2515 bound_to 2510
   -2.7325  -17.6970   13.1538 H   0  0  0  0  0  0  0  0  0  0  0  0  # atno 3721 bound_to 3712
   -5.4871  -22.1079   10.7284 H   0  0  0  0  0  0  0  0  0  0  0  0  # atno 3767 bound_to 3762
    2.6944  -19.7966    8.3476 H   0  0  0  0  0  0  0  0  0  0  0  0  # atno 3841 bound_to 3832
    4.8862   -8.9713    4.7394 LP  0  0  0  0  0  0  0  0  0  0  0  0  # atno 4297 bound_to 1298
    3.9123  -10.2706    4.5668 LP  0  0  0  0  0  0  0  0  0  0  0  0  # atno 4298 bound_to 1298
    1.2446   -7.9360    7.0495 LP  0  0  0  0  0  0  0  0  0  0  0  0  # atno 4299 bound_to 2456
    0.4539   -9.0753    7.9116 LP  0  0  0  0  0  0  0  0  0  0  0  0  # atno 4300 bound_to 2456
    2.5187   -7.5962    4.6433 LP  0  0  0  0  0  0  0  0  0  0  0  0  # atno 4301 bound_to 2510
    2.7304   -9.1853    4.9538 LP  0  0  0  0  0  0  0  0  0  0  0  0  # atno 4302 bound_to 2510
   -2.8103  -17.7390   14.7570 LP  0  0  0  0  0  0  0  0  0  0  0  0  # atno 4306 bound_to 3712
   -3.5626  -16.5559   13.9198 LP  0  0  0  0  0  0  0  0  0  0  0  0  # atno 4307 bound_to 3712
    2.7236  -21.1420    9.2224 LP  0  0  0  0  0  0  0  0  0  0  0  0  # atno 4314 bound_to 3832
    1.3933  -20.1953    9.1985 LP  0  0  0  0  0  0  0  0  0  0  0  0  # atno 4315 bound_to 3832
   -4.1516  -22.4611   11.5993 LP  0  0  0  0  0  0  0  0  0  0  0  0  # atno 4318 bound_to 3762
   -4.4890  -23.3059   10.2432 LP  0  0  0  0  0  0  0  0  0  0  0  0  # atno 4319 bound_to 3762
   -4.5411   -5.4474    9.4340 LP  0  0  0  0  0  0  0  0  0  0  0  0  # atno 4320 bound_to 2467
   -5.3995   -5.0609    8.0997 LP  0  0  0  0  0  0  0  0  0  0  0  0  # atno 4321 bound_to 2467

> <Gold.Score>
     Score     S(PLP)   S(hbond)     S(cho)   S(metal)  DE(clash)   DE(tors)     intcor
     44.33     -42.54       0.74       0.00       0.00       0.00       0.66       0.90

> <Gold.PLP.Fitness>
44.3274

> <Gold.PLP.PLP>
-42.5362

> <Gold.PLP.part.hbond>
-1.0000

> <Gold.PLP.part.metal>
0.0000

> <Gold.PLP.part.buried>
-8.7372

> <Gold.PLP.part.nonpolar>
-33.9505

> <Gold.PLP.part.repulsive>
0.3735

> <Gold.PLP.ligand.clash>
0.0000

> <Gold.PLP.ligand.torsion>
0.6579

> <Gold.PLP.Chemscore.Hbond>
0.7360

> <Gold.PLP.Chemscore.CHOScore>
0.0000

> <Gold.PLP.Chemscore.Metal>
0.0000

> <Gold.Chemscore.Hbonds>
donor molecule, donor type, donor heavy atom, donor atom, acceptor molecule, acceptor atom, score
      P1  H  3712  3721       L1     7  0.74

> <Gold.PLP.Chemscore.Internal.Correction>
0.8991

