#       Name:                EN300-1719111_i001
#       Creating user name   fsindt
#       Creation time:       Thu Mar  2 00:30:34 2023


#       File generated by GOLD software.
#

@<TRIPOS>MOLECULE
EN300-1719111_i001|acide_1|mol2|10811|dock20
    40    42     1
SMALL
USER_CHARGES


@<TRIPOS>ATOM
      1 C1           1.5700 -17.8116  14.8401 C.3            1 <1>                0.0000
      2 C2           0.7888 -18.1617  13.5719 C.3            1 <1>                0.0000
      3 C3           1.7058 -18.9019  12.5961 C.3            1 <1>                0.0000
      4 C4          -0.3982 -19.0563  13.9347 C.3            1 <1>                0.0000
      5 O5           0.3038 -16.9425  12.9501 O.3            1 <1>                0.0000
      6 C6           1.2231 -16.1362  12.3867 C.2            1 <1>                0.0000
      7 O7           2.3588 -16.1150  12.8183 O.2            1 <1>                0.0000
      8 N8           0.8838 -15.3526  11.3439 N.am           1 <1>                0.0000
      9 C9          -0.3429 -15.1039  10.5635 C.3            1 <1>                0.0000
     10 C10          0.2268 -13.7427  10.2341 C.3            1 <1>                0.0000
     11 C11          1.5764 -14.3672  10.4926 C.3            1 <1>                0.0000
     12 O12         -0.1685 -12.6215  11.0314 O.3            1 <1>                0.0000
     13 C13         -0.5709 -11.6550  10.0056 C.3            1 <1>                0.0000
     14 C14         -1.0945 -10.2991  10.4834 C.3            1 <1>                0.0000
     15 C15         -1.4081 -12.4940   9.0074 C.3            1 <1>                0.0000
     16 C16         -0.0355 -13.1988   8.8054 C.3            1 <1>                0.0000
     17 C17          0.4599 -11.6969   8.8393 C.3            1 <1>                0.0000
     18 C18          0.2284 -14.0946   7.6226 C.2            1 <1>                0.0000
     19 O19          1.3591 -14.4920   7.3990 O.co2          1 <1>                0.0000
     20 O20         -0.6891 -14.4219   6.8892 O.co2          1 <1>               -1.0000
     21 H21          2.4156 -17.1743  14.5816 H              1 <1>                0.0000
     22 H22          0.9167 -17.2842  15.5352 H              1 <1>                0.0000
     23 H23          1.9341 -18.7269  15.3068 H              1 <1>                0.0000
     24 H24          2.0698 -19.8172  13.0629 H              1 <1>                0.0000
     25 H25          1.1493 -19.1514  11.6927 H              1 <1>                0.0000
     26 H26          2.5514 -18.2647  12.3377 H              1 <1>                0.0000
     27 H27         -1.0515 -18.5289  14.6298 H              1 <1>                0.0000
     28 H28         -0.9547 -19.3057  13.0313 H              1 <1>                0.0000
     29 H29         -0.0341 -19.9715  14.4015 H              1 <1>                0.0000
     30 H30         -0.4467 -15.7547   9.6953 H              1 <1>                0.0000
     31 H31         -1.2461 -15.0628  11.1724 H              1 <1>                0.0000
     32 H32          2.2595 -13.7179  11.0403 H              1 <1>                0.0000
     33 H33          2.0304 -14.8071   9.6047 H              1 <1>                0.0000
     34 H34         -0.3543  -9.8323  11.1331 H              1 <1>                0.0000
     35 H35         -1.2788  -9.6568   9.6222 H              1 <1>                0.0000
     36 H36         -2.0236 -10.4425  11.0352 H              1 <1>                0.0000
     37 H37         -2.1730 -13.1174   9.4704 H              1 <1>                0.0000
     38 H38         -1.7647 -11.9405   8.1387 H              1 <1>                0.0000
     39 H39          0.1807 -11.1071   7.9662 H              1 <1>                0.0000
     40 H40          1.5005 -11.5689   9.1377 H              1 <1>                0.0000
@<TRIPOS>BOND
    1    1    2 1     
    2    1   21 1     
    3    1   22 1     
    4    1   23 1     
    5    2    3 1     
    6    2    4 1     
    7    2    5 1     
    8    3   24 1     
    9    3   25 1     
   10    3   26 1     
   11    4   27 1     
   12    4   28 1     
   13    4   29 1     
   14    5    6 1     
   15    6    7 2     
   16    6    8 am    
   17    8    9 1     
   18    8   11 1     
   19    9   10 1     
   20    9   30 1     
   21    9   31 1     
   22   10   11 1     
   23   10   12 1     
   24   10   16 1     
   25   11   32 1     
   26   11   33 1     
   27   12   13 1     
   28   13   14 1     
   29   13   15 1     
   30   13   17 1     
   31   14   34 1     
   32   14   35 1     
   33   14   36 1     
   34   15   16 1     
   35   15   37 1     
   36   15   38 1     
   37   16   17 1     
   38   16   18 1     
   39   17   39 1     
   40   17   40 1     
   41   18   19 ar    
   42   18   20 ar    
@<TRIPOS>SUBSTRUCTURE
      1 ****           1
@<TRIPOS>COMMENT
> <Gold.Version>
2022.2.0

> <Gold.Id.Protein>
3pbl|protein|mol2

> <Gold.Protein.RotatedTorsions>
[ 1303 1298 1297 1294 ] final   44.60 input  179.99 | X-H torsion
[ 2461 2456 2455 2452 ] final   16.38 input   30.03 | X-H torsion
[ 2515 2510 2509 2506 ] final -101.58 input  -89.99 | X-H torsion
[ 3721 3712 3711 3710 ] final   11.31 input -179.91 | X-H torsion
[ 3841 3832 3831 3830 ] final  124.89 input -179.91 | X-H torsion
[ 3767 3762 3761 3758 ] final   53.22 input  -89.99 | X-H torsion
[ 2472 2467 2466 2463 ] final -107.53 input  -89.97 | X-H torsion

> <Gold.Protein.ActiveResidues>
 VAL82   VAL86   LEU89   PHE106  VAL107  ASP110  VAL111  MET112  CYS114  THR115 
 CYS181  SER182  ILE183  PHE188  VAL189  ILE190  SER192  SER193  SER196  TRP342 
 PHE345  PHE346  HIS349  VAL350  TYR365  THR369  GLY372  TYR373 

> <Gold.Protein.RotatedAtoms>
    3.8041  -10.2532    4.4856 H   0  0  0  0  0  0  0  0  0  0  0  0  # atno 1303 bound_to 1298
    1.3010   -7.9271    7.0604 H   0  0  0  0  0  0  0  0  0  0  0  0  # atno 2461 bound_to 2456
   -4.3013   -5.4113    9.4048 H   0  0  0  0  0  0  0  0  0  0  0  0  # atno 2472 bound_to 2467
    2.7913   -9.0612    4.7465 H   0  0  0  0  0  0  0  0  0  0  0  0  # atno 2515 bound_to 2510
   -2.4714  -18.0089   14.0806 H   0  0  0  0  0  0  0  0  0  0  0  0  # atno 3721 bound_to 3712
   -4.6633  -23.2442   10.1473 H   0  0  0  0  0  0  0  0  0  0  0  0  # atno 3767 bound_to 3762
    3.1026  -20.6793    8.8852 H   0  0  0  0  0  0  0  0  0  0  0  0  # atno 3841 bound_to 3832
    3.6510   -8.7766    3.8055 LP  0  0  0  0  0  0  0  0  0  0  0  0  # atno 4297 bound_to 1298
    4.9071   -9.0911    4.8005 LP  0  0  0  0  0  0  0  0  0  0  0  0  # atno 4298 bound_to 1298
    0.4272   -9.0438    7.8708 LP  0  0  0  0  0  0  0  0  0  0  0  0  # atno 4299 bound_to 2456
    2.0096   -8.8371    8.2167 LP  0  0  0  0  0  0  0  0  0  0  0  0  # atno 4300 bound_to 2456
    2.0929   -8.4620    6.0952 LP  0  0  0  0  0  0  0  0  0  0  0  0  # atno 4301 bound_to 2510
    2.4124   -7.4755    4.8338 LP  0  0  0  0  0  0  0  0  0  0  0  0  # atno 4302 bound_to 2510
   -3.3714  -16.7843   14.5984 LP  0  0  0  0  0  0  0  0  0  0  0  0  # atno 4306 bound_to 3712
   -3.3030  -17.1505   13.0084 LP  0  0  0  0  0  0  0  0  0  0  0  0  # atno 4307 bound_to 3712
    1.6175  -20.6802    9.4938 LP  0  0  0  0  0  0  0  0  0  0  0  0  # atno 4314 bound_to 3832
    2.0278  -19.6374    8.3061 LP  0  0  0  0  0  0  0  0  0  0  0  0  # atno 4315 bound_to 3832
   -5.4256  -22.0140   10.9039 LP  0  0  0  0  0  0  0  0  0  0  0  0  # atno 4318 bound_to 3762
   -4.0385  -22.6170   11.5196 LP  0  0  0  0  0  0  0  0  0  0  0  0  # atno 4319 bound_to 3762
   -5.4853   -5.1469    8.3119 LP  0  0  0  0  0  0  0  0  0  0  0  0  # atno 4320 bound_to 2467
   -3.9303   -4.8355    7.9225 LP  0  0  0  0  0  0  0  0  0  0  0  0  # atno 4321 bound_to 2467

> <Gold.Score>
     Score     S(PLP)   S(hbond)     S(cho)   S(metal)  DE(clash)   DE(tors)     intcor
     38.75     -39.25       0.00       0.00       0.00       0.00       0.65       0.81

> <Gold.PLP.Fitness>
38.7530

> <Gold.PLP.PLP>
-39.2477

> <Gold.PLP.part.hbond>
0.0000

> <Gold.PLP.part.metal>
0.0000

> <Gold.PLP.part.buried>
-2.9655

> <Gold.PLP.part.nonpolar>
-36.7240

> <Gold.PLP.part.repulsive>
0.3167

> <Gold.PLP.ligand.clash>
0.0000

> <Gold.PLP.ligand.torsion>
0.6503

> <Gold.PLP.Chemscore.Hbond>
0.0000

> <Gold.PLP.Chemscore.CHOScore>
0.0000

> <Gold.PLP.Chemscore.Metal>
0.0000

> <Gold.PLP.Chemscore.Internal.Correction>
0.8058

