#       Name:                EN300-1719111_i001
#       Creating user name   fsindt
#       Creation time:       Thu Mar  2 00:30:15 2023


#       File generated by GOLD software.
#

@<TRIPOS>MOLECULE
EN300-1719111_i001|acide_1|mol2|10811|dock6
    40    42     1
SMALL
USER_CHARGES


@<TRIPOS>ATOM
      1 C1          -0.2072 -10.4960  10.4941 C.3            1 <1>                0.0000
      2 C2          -0.4555 -11.6716   9.5468 C.3            1 <1>                0.0000
      3 C3          -1.9582 -11.8185   9.2993 C.3            1 <1>                0.0000
      4 C4           0.2577 -11.4150   8.2178 C.3            1 <1>                0.0000
      5 O5           0.0581 -12.8913  10.1442 O.3            1 <1>                0.0000
      6 C6          -0.5554 -13.3313  11.2589 C.2            1 <1>                0.0000
      7 O7          -1.3291 -12.6067  11.8529 O.2            1 <1>                0.0000
      8 N8          -0.3114 -14.5756  11.7160 N.am           1 <1>                0.0000
      9 C9           0.5286 -15.7116  11.2926 C.3            1 <1>                0.0000
     10 C10          0.5286 -16.1590  12.7368 C.3            1 <1>                0.0000
     11 C11         -0.7639 -15.3891  12.8601 C.3            1 <1>                0.0000
     12 O12          1.6279 -15.7822  13.5726 O.3            1 <1>                0.0000
     13 C13          2.0092 -17.0699  14.1599 C.3            1 <1>                0.0000
     14 C14          3.2011 -17.0801  15.1192 C.3            1 <1>                0.0000
     15 C15          1.9781 -18.0525  12.9621 C.3            1 <1>                0.0000
     16 C16          0.4660 -17.6866  12.9987 C.3            1 <1>                0.0000
     17 C17          0.7192 -17.8488  14.5517 C.3            1 <1>                0.0000
     18 C18         -0.5660 -18.5107  12.2728 C.2            1 <1>                0.0000
     19 O19         -1.3514 -19.1975  12.9036 O.co2          1 <1>                0.0000
     20 O20         -0.6154 -18.4906  11.0547 O.co2          1 <1>               -1.0000
     21 H21         -0.7153 -10.6787  11.4410 H              1 <1>                0.0000
     22 H22          0.8634 -10.3913  10.6705 H              1 <1>                0.0000
     23 H23         -0.5928  -9.5803  10.0456 H              1 <1>                0.0000
     24 H24         -2.3437 -10.9028   8.8508 H              1 <1>                0.0000
     25 H25         -2.1350 -12.6559   8.6244 H              1 <1>                0.0000
     26 H26         -2.4662 -12.0012  10.2461 H              1 <1>                0.0000
     27 H27          1.3282 -11.3104   8.3941 H              1 <1>                0.0000
     28 H28          0.0808 -12.2525   7.5430 H              1 <1>                0.0000
     29 H29         -0.1279 -10.4994   7.7693 H              1 <1>                0.0000
     30 H30          0.0198 -16.4038  10.6218 H              1 <1>                0.0000
     31 H31          1.5121 -15.4145  10.9283 H              1 <1>                0.0000
     32 H32         -0.8498 -14.8278  13.7905 H              1 <1>                0.0000
     33 H33         -1.6494 -15.9861  12.6422 H              1 <1>                0.0000
     34 H34          3.0257 -16.3663  15.9241 H              1 <1>                0.0000
     35 H35          3.3212 -18.0788  15.5389 H              1 <1>                0.0000
     36 H36          4.1055 -16.8023  14.5778 H              1 <1>                0.0000
     37 H37          2.5070 -17.7024  12.0757 H              1 <1>                0.0000
     38 H38          2.1994 -19.0881  13.2205 H              1 <1>                0.0000
     39 H39          0.8907 -18.8743  14.8789 H              1 <1>                0.0000
     40 H40          0.0223 -17.2995  15.1849 H              1 <1>                0.0000
@<TRIPOS>BOND
    1    1    2 1     
    2    1   21 1     
    3    1   22 1     
    4    1   23 1     
    5    2    3 1     
    6    2    4 1     
    7    2    5 1     
    8    3   24 1     
    9    3   25 1     
   10    3   26 1     
   11    4   27 1     
   12    4   28 1     
   13    4   29 1     
   14    5    6 1     
   15    6    7 2     
   16    6    8 am    
   17    8    9 1     
   18    8   11 1     
   19    9   10 1     
   20    9   30 1     
   21    9   31 1     
   22   10   11 1     
   23   10   12 1     
   24   10   16 1     
   25   11   32 1     
   26   11   33 1     
   27   12   13 1     
   28   13   14 1     
   29   13   15 1     
   30   13   17 1     
   31   14   34 1     
   32   14   35 1     
   33   14   36 1     
   34   15   16 1     
   35   15   37 1     
   36   15   38 1     
   37   16   17 1     
   38   16   18 1     
   39   17   39 1     
   40   17   40 1     
   41   18   19 ar    
   42   18   20 ar    
@<TRIPOS>SUBSTRUCTURE
      1 ****           1
@<TRIPOS>COMMENT
> <Gold.Version>
2022.2.0

> <Gold.Id.Protein>
3pbl|protein|mol2

> <Gold.Protein.RotatedTorsions>
[ 1303 1298 1297 1294 ] final  166.59 input  179.99 | X-H torsion
[ 2461 2456 2455 2452 ] final    9.80 input   30.03 | X-H torsion
[ 2515 2510 2509 2506 ] final   83.13 input  -89.99 | X-H torsion
[ 3721 3712 3711 3710 ] final   40.59 input -179.91 | X-H torsion
[ 3841 3832 3831 3830 ] final  -53.61 input -179.91 | X-H torsion
[ 3767 3762 3761 3758 ] final  -55.72 input  -89.99 | X-H torsion
[ 2472 2467 2466 2463 ] final    4.82 input  -89.97 | X-H torsion

> <Gold.Protein.ActiveResidues>
 VAL82   VAL86   LEU89   PHE106  VAL107  ASP110  VAL111  MET112  CYS114  THR115 
 CYS181  SER182  ILE183  PHE188  VAL189  ILE190  SER192  SER193  SER196  TRP342 
 PHE345  PHE346  HIS349  VAL350  TYR365  THR369  GLY372  TYR373 

> <Gold.Protein.RotatedAtoms>
    4.9031   -9.0616    4.7868 H   0  0  0  0  0  0  0  0  0  0  0  0  # atno 1303 bound_to 1298
    1.1958   -7.9452    7.0418 H   0  0  0  0  0  0  0  0  0  0  0  0  # atno 2461 bound_to 2456
   -3.8450   -4.8590    8.0118 H   0  0  0  0  0  0  0  0  0  0  0  0  # atno 2472 bound_to 2467
    2.0595   -7.6540    5.7619 H   0  0  0  0  0  0  0  0  0  0  0  0  # atno 2515 bound_to 2510
   -2.5089  -18.0110   13.6444 H   0  0  0  0  0  0  0  0  0  0  0  0  # atno 3721 bound_to 3712
   -5.4812  -22.0942   10.7508 H   0  0  0  0  0  0  0  0  0  0  0  0  # atno 3767 bound_to 3762
    1.5865  -19.8721    9.1012 H   0  0  0  0  0  0  0  0  0  0  0  0  # atno 3841 bound_to 3832
    3.8297  -10.2594    4.5051 LP  0  0  0  0  0  0  0  0  0  0  0  0  # atno 4297 bound_to 1298
    3.6290   -8.8005    3.7995 LP  0  0  0  0  0  0  0  0  0  0  0  0  # atno 4298 bound_to 1298
    0.4795   -9.1011    7.9463 LP  0  0  0  0  0  0  0  0  0  0  0  0  # atno 4299 bound_to 2456
    2.0625   -8.7616    8.1598 LP  0  0  0  0  0  0  0  0  0  0  0  0  # atno 4300 bound_to 2456
    2.7524   -8.1293    4.3620 LP  0  0  0  0  0  0  0  0  0  0  0  0  # atno 4301 bound_to 2510
    2.4851   -9.2161    5.5511 LP  0  0  0  0  0  0  0  0  0  0  0  0  # atno 4302 bound_to 2510
   -3.1458  -17.1415   14.8344 LP  0  0  0  0  0  0  0  0  0  0  0  0  # atno 4306 bound_to 3712
   -3.4853  -16.7908   13.2760 LP  0  0  0  0  0  0  0  0  0  0  0  0  # atno 4307 bound_to 3712
    2.8848  -20.0937    8.1840 LP  0  0  0  0  0  0  0  0  0  0  0  0  # atno 4314 bound_to 3832
    2.5118  -21.1564    9.3664 LP  0  0  0  0  0  0  0  0  0  0  0  0  # atno 4315 bound_to 3832
   -4.1354  -22.4808   11.5910 LP  0  0  0  0  0  0  0  0  0  0  0  0  # atno 4318 bound_to 3762
   -4.5111  -23.2998   10.2292 LP  0  0  0  0  0  0  0  0  0  0  0  0  # atno 4319 bound_to 3762
   -4.4232   -5.4320    9.4273 LP  0  0  0  0  0  0  0  0  0  0  0  0  # atno 4320 bound_to 2467
   -5.4486   -5.1025    8.1999 LP  0  0  0  0  0  0  0  0  0  0  0  0  # atno 4321 bound_to 2467

> <Gold.Score>
     Score     S(PLP)   S(hbond)     S(cho)   S(metal)  DE(clash)   DE(tors)     intcor
     46.16     -43.29       1.00       0.00       0.00       0.18       0.39       0.84

> <Gold.PLP.Fitness>
46.1641

> <Gold.PLP.PLP>
-43.2853

> <Gold.PLP.part.hbond>
-1.9659

> <Gold.PLP.part.metal>
0.0000

> <Gold.PLP.part.buried>
-4.6498

> <Gold.PLP.part.nonpolar>
-39.0712

> <Gold.PLP.part.repulsive>
0.1719

> <Gold.PLP.ligand.clash>
0.1762

> <Gold.PLP.ligand.torsion>
0.3907

> <Gold.PLP.Chemscore.Hbond>
1.0000

> <Gold.PLP.Chemscore.CHOScore>
0.0000

> <Gold.PLP.Chemscore.Metal>
0.0000

> <Gold.Chemscore.Hbonds>
donor molecule, donor type, donor heavy atom, donor atom, acceptor molecule, acceptor atom, score
      P1  H  3712  3721       L1    19  1.00

> <Gold.PLP.Chemscore.Internal.Correction>
0.8365

