#       Name:                EN300-1719111_i001
#       Creating user name   fsindt
#       Creation time:       Thu Mar  2 00:30:19 2023


#       File generated by GOLD software.
#

@<TRIPOS>MOLECULE
EN300-1719111_i001|acide_1|mol2|10811|dock10
    40    42     1
SMALL
USER_CHARGES


@<TRIPOS>ATOM
      1 C1           1.9066 -17.4251  13.0047 C.3            1 <1>                0.0000
      2 C2           0.4183 -17.7756  12.9476 C.3            1 <1>                0.0000
      3 C3           0.2252 -19.0473  12.1192 C.3            1 <1>                0.0000
      4 C4          -0.1060 -18.0065  14.3663 C.3            1 <1>                0.0000
      5 O5          -0.3133 -16.6820  12.3333 O.3            1 <1>                0.0000
      6 C6          -0.0897 -15.4471  12.8207 C.2            1 <1>                0.0000
      7 O7           0.2135 -15.3004  13.9882 O.2            1 <1>                0.0000
      8 N8          -0.2020 -14.3735  12.0136 N.am           1 <1>                0.0000
      9 C9          -0.5368 -14.1478  10.5949 C.3            1 <1>                0.0000
     10 C10         -0.9872 -12.7609  10.9947 C.3            1 <1>                0.0000
     11 C11         -0.0496 -12.9145  12.1677 C.3            1 <1>                0.0000
     12 O12         -2.3766 -12.5393  11.2582 O.3            1 <1>                0.0000
     13 C13         -2.6519 -11.3626  10.4288 C.3            1 <1>                0.0000
     14 C14         -4.0841 -10.8243  10.4248 C.3            1 <1>                0.0000
     15 C15         -1.9450 -11.6763   9.0860 C.3            1 <1>                0.0000
     16 C16         -0.6863 -11.6106   9.9986 C.3            1 <1>                0.0000
     17 C17         -1.4695 -10.3590  10.5664 C.3            1 <1>                0.0000
     18 C18          0.7018 -11.4846   9.4255 C.2            1 <1>                0.0000
     19 O19          1.3912 -10.5185   9.7046 O.co2          1 <1>                0.0000
     20 O20          1.1353 -12.3489   8.6828 O.co2          1 <1>               -1.0000
     21 H21          2.2801 -17.2606  11.9940 H              1 <1>                0.0000
     22 H22          2.0441 -16.5191  13.5949 H              1 <1>                0.0000
     23 H23          2.4557 -18.2461  13.4658 H              1 <1>                0.0000
     24 H24          0.7744 -19.8682  12.5803 H              1 <1>                0.0000
     25 H25         -0.8350 -19.2969  12.0785 H              1 <1>                0.0000
     26 H26          0.5987 -18.8828  11.1085 H              1 <1>                0.0000
     27 H27          0.0315 -17.1005  14.9565 H              1 <1>                0.0000
     28 H28         -1.1662 -18.2562  14.3256 H              1 <1>                0.0000
     29 H29          0.4432 -18.8275  14.8274 H              1 <1>                0.0000
     30 H30          0.3316 -14.1511   9.9362 H              1 <1>                0.0000
     31 H31         -1.3463 -14.7813  10.2320 H              1 <1>                0.0000
     32 H32         -0.4546 -12.5278  13.1029 H              1 <1>                0.0000
     33 H33          0.9620 -12.5623  11.9662 H              1 <1>                0.0000
     34 H34         -4.3953 -10.6122  11.4477 H              1 <1>                0.0000
     35 H35         -4.1266  -9.9088   9.8349 H              1 <1>                0.0000
     36 H36         -4.7507 -11.5686   9.9890 H              1 <1>                0.0000
     37 H37         -2.1596 -12.6656   8.6818 H              1 <1>                0.0000
     38 H38         -2.0082 -10.8799   8.3444 H              1 <1>                0.0000
     39 H39         -1.5166  -9.5072   9.8880 H              1 <1>                0.0000
     40 H40         -1.2106 -10.0878  11.5899 H              1 <1>                0.0000
@<TRIPOS>BOND
    1    1    2 1     
    2    1   21 1     
    3    1   22 1     
    4    1   23 1     
    5    2    3 1     
    6    2    4 1     
    7    2    5 1     
    8    3   24 1     
    9    3   25 1     
   10    3   26 1     
   11    4   27 1     
   12    4   28 1     
   13    4   29 1     
   14    5    6 1     
   15    6    7 2     
   16    6    8 am    
   17    8    9 1     
   18    8   11 1     
   19    9   10 1     
   20    9   30 1     
   21    9   31 1     
   22   10   11 1     
   23   10   12 1     
   24   10   16 1     
   25   11   32 1     
   26   11   33 1     
   27   12   13 1     
   28   13   14 1     
   29   13   15 1     
   30   13   17 1     
   31   14   34 1     
   32   14   35 1     
   33   14   36 1     
   34   15   16 1     
   35   15   37 1     
   36   15   38 1     
   37   16   17 1     
   38   16   18 1     
   39   17   39 1     
   40   17   40 1     
   41   18   19 ar    
   42   18   20 ar    
@<TRIPOS>SUBSTRUCTURE
      1 ****           1
@<TRIPOS>COMMENT
> <Gold.Version>
2022.2.0

> <Gold.Id.Protein>
3pbl|protein|mol2

> <Gold.Protein.RotatedTorsions>
[ 1303 1298 1297 1294 ] final  -37.83 input  179.99 | X-H torsion
[ 2461 2456 2455 2452 ] final -157.42 input   30.03 | X-H torsion
[ 2515 2510 2509 2506 ] final  102.22 input  -89.99 | X-H torsion
[ 3721 3712 3711 3710 ] final -117.51 input -179.91 | X-H torsion
[ 3841 3832 3831 3830 ] final  128.90 input -179.91 | X-H torsion
[ 3767 3762 3761 3758 ] final  -76.03 input  -89.99 | X-H torsion
[ 2472 2467 2466 2463 ] final   77.53 input  -89.97 | X-H torsion

> <Gold.Protein.ActiveResidues>
 VAL82   VAL86   LEU89   PHE106  VAL107  ASP110  VAL111  MET112  CYS114  THR115 
 CYS181  SER182  ILE183  PHE188  VAL189  ILE190  SER192  SER193  SER196  TRP342 
 PHE345  PHE346  HIS349  VAL350  TYR365  THR369  GLY372  TYR373 

> <Gold.Protein.RotatedAtoms>
    3.3601   -9.3096    3.8108 H   0  0  0  0  0  0  0  0  0  0  0  0  # atno 1303 bound_to 1298
    1.0925   -9.2872    8.3464 H   0  0  0  0  0  0  0  0  0  0  0  0  # atno 2461 bound_to 2456
   -4.9215   -4.8690    7.7108 H   0  0  0  0  0  0  0  0  0  0  0  0  # atno 2472 bound_to 2467
    2.0295   -7.8965    5.9568 H   0  0  0  0  0  0  0  0  0  0  0  0  # atno 2515 bound_to 2510
   -3.2041  -16.6752   14.4350 H   0  0  0  0  0  0  0  0  0  0  0  0  # atno 3721 bound_to 3712
   -5.3579  -21.9631   11.0303 H   0  0  0  0  0  0  0  0  0  0  0  0  # atno 3767 bound_to 3762
    3.1160  -20.6397    8.8414 H   0  0  0  0  0  0  0  0  0  0  0  0  # atno 3841 bound_to 3832
    4.6901   -8.6299    4.4707 LP  0  0  0  0  0  0  0  0  0  0  0  0  # atno 4297 bound_to 1298
    4.3122  -10.1818    4.8103 LP  0  0  0  0  0  0  0  0  0  0  0  0  # atno 4298 bound_to 1298
    2.1041   -8.2209    7.6342 LP  0  0  0  0  0  0  0  0  0  0  0  0  # atno 4299 bound_to 2456
    0.5411   -8.3002    7.1678 LP  0  0  0  0  0  0  0  0  0  0  0  0  # atno 4300 bound_to 2456
    2.6544   -7.8455    4.4493 LP  0  0  0  0  0  0  0  0  0  0  0  0  # atno 4301 bound_to 2510
    2.6130   -9.2573    5.2688 LP  0  0  0  0  0  0  0  0  0  0  0  0  # atno 4302 bound_to 2510
   -3.2108  -17.3183   12.9638 LP  0  0  0  0  0  0  0  0  0  0  0  0  # atno 4306 bound_to 3712
   -2.6177  -18.1562   14.2338 LP  0  0  0  0  0  0  0  0  0  0  0  0  # atno 4307 bound_to 3712
    1.6601  -20.7289    9.5111 LP  0  0  0  0  0  0  0  0  0  0  0  0  # atno 4314 bound_to 3832
    1.9698  -19.6345    8.3394 LP  0  0  0  0  0  0  0  0  0  0  0  0  # atno 4315 bound_to 3832
   -3.9766  -22.7312   11.4409 LP  0  0  0  0  0  0  0  0  0  0  0  0  # atno 4318 bound_to 3762
   -4.7931  -23.1805   10.1000 LP  0  0  0  0  0  0  0  0  0  0  0  0  # atno 4319 bound_to 3762
   -3.6440   -5.0858    8.7045 LP  0  0  0  0  0  0  0  0  0  0  0  0  # atno 4320 bound_to 2467
   -5.1515   -5.4387    9.2237 LP  0  0  0  0  0  0  0  0  0  0  0  0  # atno 4321 bound_to 2467

> <Gold.Score>
     Score     S(PLP)   S(hbond)     S(cho)   S(metal)  DE(clash)   DE(tors)     intcor
     42.67     -37.69       1.89       0.00       0.00       0.00       0.76       0.82

> <Gold.PLP.Fitness>
42.6680

> <Gold.PLP.PLP>
-37.6853

> <Gold.PLP.part.hbond>
-2.5750

> <Gold.PLP.part.metal>
0.0000

> <Gold.PLP.part.buried>
0.8724

> <Gold.PLP.part.nonpolar>
-37.6040

> <Gold.PLP.part.repulsive>
0.2387

> <Gold.PLP.ligand.clash>
0.0000

> <Gold.PLP.ligand.torsion>
0.7597

> <Gold.PLP.Chemscore.Hbond>
1.8938

> <Gold.PLP.Chemscore.CHOScore>
0.0000

> <Gold.PLP.Chemscore.Metal>
0.0000

> <Gold.Chemscore.Hbonds>
donor molecule, donor type, donor heavy atom, donor atom, acceptor molecule, acceptor atom, score
      P1  H  2456  2461       L1    19  1.00
      P1  H  2305  2313       L1     7  0.89

> <Gold.PLP.Chemscore.Internal.Correction>
0.8209

