#       Name:                EN300-1719111_i001
#       Creating user name   fsindt
#       Creation time:       Thu Mar  2 00:30:24 2023


#       File generated by GOLD software.
#

@<TRIPOS>MOLECULE
EN300-1719111_i001|acide_1|mol2|10811|dock14
    40    42     1
SMALL
USER_CHARGES


@<TRIPOS>ATOM
      1 C1          -1.4688 -24.4963  13.0435 C.3            1 <1>                0.0000
      2 C2          -0.8631 -23.9052  14.3182 C.3            1 <1>                0.0000
      3 C3          -1.4577 -24.6096  15.5394 C.3            1 <1>                0.0000
      4 C4           0.6536 -24.1052  14.3024 C.3            1 <1>                0.0000
      5 O5          -1.1636 -22.4862  14.3840 O.3            1 <1>                0.0000
      6 C6          -0.4648 -21.7539  15.2717 C.2            1 <1>                0.0000
      7 O7          -0.0628 -22.2650  16.2982 O.2            1 <1>                0.0000
      8 N8          -0.2111 -20.4540  15.0218 N.am           1 <1>                0.0000
      9 C9           0.4925 -19.3611  15.7190 C.3            1 <1>                0.0000
     10 C10          0.7049 -18.7272  14.3629 C.3            1 <1>                0.0000
     11 C11         -0.5113 -19.5093  13.9295 C.3            1 <1>                0.0000
     12 O12          1.9423 -18.9601  13.6820 O.3            1 <1>                0.0000
     13 C13          2.3503 -17.5962  13.3331 C.3            1 <1>                0.0000
     14 C14          3.6800 -17.4268  12.5956 C.3            1 <1>                0.0000
     15 C15          2.0773 -16.7815  14.6227 C.3            1 <1>                0.0000
     16 C16          0.6109 -17.1807  14.2882 C.3            1 <1>                0.0000
     17 C17          1.1043 -16.8082  12.8322 C.3            1 <1>                0.0000
     18 C18         -0.5642 -16.4883  14.9290 C.2            1 <1>                0.0000
     19 O19         -1.4216 -17.1426  15.4976 O.co2          1 <1>                0.0000
     20 O20         -0.6575 -15.2736  14.8788 O.co2          1 <1>               -1.0000
     21 H21         -2.5493 -24.3539  13.0547 H              1 <1>                0.0000
     22 H22         -1.0451 -23.9945  12.1735 H              1 <1>                0.0000
     23 H23         -1.2431 -25.5616  12.9942 H              1 <1>                0.0000
     24 H24         -1.2321 -25.6749  15.4900 H              1 <1>                0.0000
     25 H25         -1.0263 -24.1885  16.4475 H              1 <1>                0.0000
     26 H26         -2.5383 -24.4672  15.5506 H              1 <1>                0.0000
     27 H27          1.0773 -23.6034  13.4325 H              1 <1>                0.0000
     28 H28          1.0851 -23.6842  15.2105 H              1 <1>                0.0000
     29 H29          0.8792 -25.1705  14.2531 H              1 <1>                0.0000
     30 H30         -0.1516 -18.7777  16.3768 H              1 <1>                0.0000
     31 H31          1.4173 -19.6766  16.2023 H              1 <1>                0.0000
     32 H32         -0.4176 -19.9451  12.9349 H              1 <1>                0.0000
     33 H33         -1.4485 -18.9709  14.0697 H              1 <1>                0.0000
     34 H34          3.6726 -18.0326  11.6895 H              1 <1>                0.0000
     35 H35          3.8176 -16.3785  12.3307 H              1 <1>                0.0000
     36 H36          4.4972 -17.7486  13.2413 H              1 <1>                0.0000
     37 H37          2.4720 -17.2308  15.5340 H              1 <1>                0.0000
     38 H38          2.2866 -15.7152  14.5371 H              1 <1>                0.0000
     39 H39          1.2763 -15.7441  12.6697 H              1 <1>                0.0000
     40 H40          0.5472 -17.2879  12.0276 H              1 <1>                0.0000
@<TRIPOS>BOND
    1    1    2 1     
    2    1   21 1     
    3    1   22 1     
    4    1   23 1     
    5    2    3 1     
    6    2    4 1     
    7    2    5 1     
    8    3   24 1     
    9    3   25 1     
   10    3   26 1     
   11    4   27 1     
   12    4   28 1     
   13    4   29 1     
   14    5    6 1     
   15    6    7 2     
   16    6    8 am    
   17    8    9 1     
   18    8   11 1     
   19    9   10 1     
   20    9   30 1     
   21    9   31 1     
   22   10   11 1     
   23   10   12 1     
   24   10   16 1     
   25   11   32 1     
   26   11   33 1     
   27   12   13 1     
   28   13   14 1     
   29   13   15 1     
   30   13   17 1     
   31   14   34 1     
   32   14   35 1     
   33   14   36 1     
   34   15   16 1     
   35   15   37 1     
   36   15   38 1     
   37   16   17 1     
   38   16   18 1     
   39   17   39 1     
   40   17   40 1     
   41   18   19 ar    
   42   18   20 ar    
@<TRIPOS>SUBSTRUCTURE
      1 ****           1
@<TRIPOS>COMMENT
> <Gold.Version>
2022.2.0

> <Gold.Id.Protein>
3pbl|protein|mol2

> <Gold.Protein.RotatedTorsions>
[ 1303 1298 1297 1294 ] final  -94.19 input  179.99 | X-H torsion
[ 2461 2456 2455 2452 ] final  -18.49 input   30.03 | X-H torsion
[ 2515 2510 2509 2506 ] final  103.76 input  -89.99 | X-H torsion
[ 3721 3712 3711 3710 ] final  -29.34 input -179.91 | X-H torsion
[ 3841 3832 3831 3830 ] final  -23.10 input -179.91 | X-H torsion
[ 3767 3762 3761 3758 ] final -134.64 input  -89.99 | X-H torsion
[ 2472 2467 2466 2463 ] final -135.91 input  -89.97 | X-H torsion

> <Gold.Protein.ActiveResidues>
 VAL82   VAL86   LEU89   PHE106  VAL107  ASP110  VAL111  MET112  CYS114  THR115 
 CYS181  SER182  ILE183  PHE188  VAL189  ILE190  SER192  SER193  SER196  TRP342 
 PHE345  PHE346  HIS349  VAL350  TYR365  THR369  GLY372  TYR373 

> <Gold.Protein.RotatedAtoms>
    3.8809   -8.5924    3.8944 H   0  0  0  0  0  0  0  0  0  0  0  0  # atno 1303 bound_to 1298
    0.7686   -8.1167    7.0639 H   0  0  0  0  0  0  0  0  0  0  0  0  # atno 2461 bound_to 2456
   -4.7606   -5.4631    9.4085 H   0  0  0  0  0  0  0  0  0  0  0  0  # atno 2472 bound_to 2467
    2.0290   -7.9186    5.9693 H   0  0  0  0  0  0  0  0  0  0  0  0  # atno 2515 bound_to 2510
   -2.5995  -17.7070   14.5850 H   0  0  0  0  0  0  0  0  0  0  0  0  # atno 3721 bound_to 3712
   -4.6444  -22.0586   11.6081 H   0  0  0  0  0  0  0  0  0  0  0  0  # atno 3767 bound_to 3762
    1.5914  -20.2129    9.4033 H   0  0  0  0  0  0  0  0  0  0  0  0  # atno 3841 bound_to 3832
    4.8937   -9.3810    4.9036 LP  0  0  0  0  0  0  0  0  0  0  0  0  # atno 4297 bound_to 1298
    3.5876  -10.1483    4.2937 LP  0  0  0  0  0  0  0  0  0  0  0  0  # atno 4298 bound_to 1298
    0.8081   -9.2649    8.2247 LP  0  0  0  0  0  0  0  0  0  0  0  0  # atno 4299 bound_to 2456
    2.1609   -8.4265    7.8594 LP  0  0  0  0  0  0  0  0  0  0  0  0  # atno 4300 bound_to 2456
    2.6452   -7.8245    4.4602 LP  0  0  0  0  0  0  0  0  0  0  0  0  # atno 4301 bound_to 2510
    2.6227   -9.2562    5.2454 LP  0  0  0  0  0  0  0  0  0  0  0  0  # atno 4302 bound_to 2510
   -3.5551  -16.5564   14.0011 LP  0  0  0  0  0  0  0  0  0  0  0  0  # atno 4306 bound_to 3712
   -2.9714  -17.7268   13.0233 LP  0  0  0  0  0  0  0  0  0  0  0  0  # atno 4307 bound_to 3712
    2.4919  -19.7806    8.1470 LP  0  0  0  0  0  0  0  0  0  0  0  0  # atno 4314 bound_to 3832
    2.8991  -21.0757    9.0545 LP  0  0  0  0  0  0  0  0  0  0  0  0  # atno 4315 bound_to 3832
   -4.0491  -23.2802   10.7025 LP  0  0  0  0  0  0  0  0  0  0  0  0  # atno 4318 bound_to 3762
   -5.4339  -22.5361   10.2607 LP  0  0  0  0  0  0  0  0  0  0  0  0  # atno 4319 bound_to 3762
   -5.2738   -4.9871    7.9332 LP  0  0  0  0  0  0  0  0  0  0  0  0  # atno 4320 bound_to 2467
   -3.6826   -4.9434    8.2975 LP  0  0  0  0  0  0  0  0  0  0  0  0  # atno 4321 bound_to 2467

> <Gold.Score>
     Score     S(PLP)   S(hbond)     S(cho)   S(metal)  DE(clash)   DE(tors)     intcor
     41.59     -36.90       1.78       0.00       0.00       0.00       0.74       0.82

> <Gold.PLP.Fitness>
41.5926

> <Gold.PLP.PLP>
-36.9021

> <Gold.PLP.part.hbond>
-1.6778

> <Gold.PLP.part.metal>
0.0000

> <Gold.PLP.part.buried>
1.5839

> <Gold.PLP.part.nonpolar>
-39.8084

> <Gold.PLP.part.repulsive>
0.2693

> <Gold.PLP.ligand.clash>
0.0000

> <Gold.PLP.ligand.torsion>
0.7387

> <Gold.PLP.Chemscore.Hbond>
1.7835

> <Gold.PLP.Chemscore.CHOScore>
0.0000

> <Gold.PLP.Chemscore.Metal>
0.0000

> <Gold.Chemscore.Hbonds>
donor molecule, donor type, donor heavy atom, donor atom, acceptor molecule, acceptor atom, score
      P1  H  2305  2313       L1    20  0.82
      P1  H  3712  3721       L1    19  0.97

> <Gold.PLP.Chemscore.Internal.Correction>
0.8174

