#       Name:                EN300-1719111_i001
#       Creating user name   fsindt
#       Creation time:       Thu Mar  2 00:30:13 2023


#       File generated by GOLD software.
#

@<TRIPOS>MOLECULE
EN300-1719111_i001|acide_1|mol2|10811|dock4
    40    42     1
SMALL
USER_CHARGES


@<TRIPOS>ATOM
      1 C1          -1.9716 -11.5964   9.2292 C.3            1 <1>                0.0000
      2 C2          -1.5632 -11.2617  10.6653 C.3            1 <1>                0.0000
      3 C3          -0.3018 -10.3959  10.6481 C.3            1 <1>                0.0000
      4 C4          -2.6966 -10.4981  11.3530 C.3            1 <1>                0.0000
      5 O5          -1.2969 -12.4905  11.3916 O.3            1 <1>                0.0000
      6 C6          -0.3743 -13.3210  10.8702 C.2            1 <1>                0.0000
      7 O7           0.2752 -12.9770   9.9025 O.2            1 <1>                0.0000
      8 N8          -0.1711 -14.5339  11.4217 N.am           1 <1>                0.0000
      9 C9           0.7126 -15.6835  11.1514 C.3            1 <1>                0.0000
     10 C10          0.5706 -16.0463  12.6122 C.3            1 <1>                0.0000
     11 C11         -0.7315 -15.2845  12.5610 C.3            1 <1>                0.0000
     12 O12          1.5791 -15.6099  13.5295 O.3            1 <1>                0.0000
     13 C13          1.9062 -16.8571  14.2265 C.3            1 <1>                0.0000
     14 C14          2.9964 -16.7988  15.2984 C.3            1 <1>                0.0000
     15 C15          1.9997 -17.9078  13.0914 C.3            1 <1>                0.0000
     16 C16          0.4897 -17.5567  12.9559 C.3            1 <1>                0.0000
     17 C17          0.5873 -17.6258  14.5333 C.3            1 <1>                0.0000
     18 C18         -0.4606 -18.4327  12.1809 C.2            1 <1>                0.0000
     19 O19         -1.2996 -19.0926  12.7700 O.co2          1 <1>                0.0000
     20 O20         -0.3903 -18.4813  10.9646 O.co2          1 <1>               -1.0000
     21 H21         -1.1641 -12.1404   8.7392 H              1 <1>                0.0000
     22 H22         -2.8702 -12.2132   9.2415 H              1 <1>                0.0000
     23 H23         -2.1715 -10.6739   8.6840 H              1 <1>                0.0000
     24 H24         -0.5017  -9.4735  10.1028 H              1 <1>                0.0000
     25 H25         -0.0109 -10.1575  11.6711 H              1 <1>                0.0000
     26 H26          0.5056 -10.9399  10.1581 H              1 <1>                0.0000
     27 H27         -3.5952 -11.1149  11.3653 H              1 <1>                0.0000
     28 H28         -2.4056 -10.2597  12.3760 H              1 <1>                0.0000
     29 H29         -2.8965  -9.5757  10.8078 H              1 <1>                0.0000
     30 H30          0.2767 -16.4189  10.4752 H              1 <1>                0.0000
     31 H31          1.7261 -15.3975  10.8697 H              1 <1>                0.0000
     32 H32         -0.9126 -14.6711  13.4436 H              1 <1>                0.0000
     33 H33         -1.5878 -15.9026  12.2916 H              1 <1>                0.0000
     34 H34          2.7380 -16.0415  16.0386 H              1 <1>                0.0000
     35 H35          3.0789 -17.7701  15.7860 H              1 <1>                0.0000
     36 H36          3.9490 -16.5431  14.8342 H              1 <1>                0.0000
     37 H37          2.6127 -17.6041  12.2429 H              1 <1>                0.0000
     38 H38          2.1992 -18.9243  13.4310 H              1 <1>                0.0000
     39 H39          0.7304 -18.6286  14.9357 H              1 <1>                0.0000
     40 H40         -0.1719 -17.0483  15.0607 H              1 <1>                0.0000
@<TRIPOS>BOND
    1    1    2 1     
    2    1   21 1     
    3    1   22 1     
    4    1   23 1     
    5    2    3 1     
    6    2    4 1     
    7    2    5 1     
    8    3   24 1     
    9    3   25 1     
   10    3   26 1     
   11    4   27 1     
   12    4   28 1     
   13    4   29 1     
   14    5    6 1     
   15    6    7 2     
   16    6    8 am    
   17    8    9 1     
   18    8   11 1     
   19    9   10 1     
   20    9   30 1     
   21    9   31 1     
   22   10   11 1     
   23   10   12 1     
   24   10   16 1     
   25   11   32 1     
   26   11   33 1     
   27   12   13 1     
   28   13   14 1     
   29   13   15 1     
   30   13   17 1     
   31   14   34 1     
   32   14   35 1     
   33   14   36 1     
   34   15   16 1     
   35   15   37 1     
   36   15   38 1     
   37   16   17 1     
   38   16   18 1     
   39   17   39 1     
   40   17   40 1     
   41   18   19 ar    
   42   18   20 ar    
@<TRIPOS>SUBSTRUCTURE
      1 ****           1
@<TRIPOS>COMMENT
> <Gold.Version>
2022.2.0

> <Gold.Id.Protein>
3pbl|protein|mol2

> <Gold.Protein.RotatedTorsions>
[ 1303 1298 1297 1294 ] final  135.39 input  179.99 | X-H torsion
[ 2461 2456 2455 2452 ] final -130.16 input   30.03 | X-H torsion
[ 2515 2510 2509 2506 ] final -135.82 input  -89.99 | X-H torsion
[ 3721 3712 3711 3710 ] final   60.88 input -179.91 | X-H torsion
[ 3841 3832 3831 3830 ] final  -13.96 input -179.91 | X-H torsion
[ 3767 3762 3761 3758 ] final -129.17 input  -89.99 | X-H torsion
[ 2472 2467 2466 2463 ] final   25.01 input  -89.97 | X-H torsion

> <Gold.Protein.ActiveResidues>
 VAL82   VAL86   LEU89   PHE106  VAL107  ASP110  VAL111  MET112  CYS114  THR115 
 CYS181  SER182  ILE183  PHE188  VAL189  ILE190  SER192  SER193  SER196  TRP342 
 PHE345  PHE346  HIS349  VAL350  TYR365  THR369  GLY372  TYR373 

> <Gold.Protein.RotatedAtoms>
    4.8499   -9.5430    4.9367 H   0  0  0  0  0  0  0  0  0  0  0  0  # atno 1303 bound_to 1298
    0.6961   -9.2322    8.1530 H   0  0  0  0  0  0  0  0  0  0  0  0  # atno 2461 bound_to 2456
   -4.0940   -4.8101    7.8000 H   0  0  0  0  0  0  0  0  0  0  0  0  # atno 2472 bound_to 2467
    2.6253   -9.2554    5.2392 H   0  0  0  0  0  0  0  0  0  0  0  0  # atno 2515 bound_to 2510
   -2.5959  -17.9013   13.3733 H   0  0  0  0  0  0  0  0  0  0  0  0  # atno 3721 bound_to 3712
   -4.7210  -22.0202   11.5804 H   0  0  0  0  0  0  0  0  0  0  0  0  # atno 3767 bound_to 3762
    1.6353  -20.3227    9.4744 H   0  0  0  0  0  0  0  0  0  0  0  0  # atno 3841 bound_to 3832
    3.4906  -10.0531    4.1894 LP  0  0  0  0  0  0  0  0  0  0  0  0  # atno 4297 bound_to 1298
    4.0213   -8.5251    3.9653 LP  0  0  0  0  0  0  0  0  0  0  0  0  # atno 4298 bound_to 1298
    2.1546   -8.5243    7.9549 LP  0  0  0  0  0  0  0  0  0  0  0  0  # atno 4299 bound_to 2456
    0.8869   -8.0518    7.0404 LP  0  0  0  0  0  0  0  0  0  0  0  0  # atno 4300 bound_to 2456
    2.0286   -7.9244    5.9728 LP  0  0  0  0  0  0  0  0  0  0  0  0  # atno 4301 bound_to 2510
    2.6427   -7.8189    4.4633 LP  0  0  0  0  0  0  0  0  0  0  0  0  # atno 4302 bound_to 2510
   -2.9769  -17.4322   14.8608 LP  0  0  0  0  0  0  0  0  0  0  0  0  # atno 4306 bound_to 3712
   -3.5538  -16.6268   13.5626 LP  0  0  0  0  0  0  0  0  0  0  0  0  # atno 4307 bound_to 3712
    2.3559  -19.7171    8.1743 LP  0  0  0  0  0  0  0  0  0  0  0  0  # atno 4314 bound_to 3832
    2.9844  -21.0124    8.9449 LP  0  0  0  0  0  0  0  0  0  0  0  0  # atno 4315 bound_to 3832
   -4.0086  -23.2509   10.7774 LP  0  0  0  0  0  0  0  0  0  0  0  0  # atno 4318 bound_to 3762
   -5.3978  -22.6037   10.2135 LP  0  0  0  0  0  0  0  0  0  0  0  0  # atno 4319 bound_to 3762
   -4.1128   -5.3648    9.3357 LP  0  0  0  0  0  0  0  0  0  0  0  0  # atno 4320 bound_to 2467
   -5.5100   -5.2185    8.5033 LP  0  0  0  0  0  0  0  0  0  0  0  0  # atno 4321 bound_to 2467

> <Gold.Score>
     Score     S(PLP)   S(hbond)     S(cho)   S(metal)  DE(clash)   DE(tors)     intcor
     48.51     -46.30       1.00       0.00       0.00       1.10       0.27       0.84

> <Gold.PLP.Fitness>
48.5117

> <Gold.PLP.PLP>
-46.3046

> <Gold.PLP.part.hbond>
-1.0000

> <Gold.PLP.part.metal>
0.0000

> <Gold.PLP.part.buried>
-6.0657

> <Gold.PLP.part.nonpolar>
-41.1047

> <Gold.PLP.part.repulsive>
0.1591

> <Gold.PLP.ligand.clash>
1.1034

> <Gold.PLP.ligand.torsion>
0.2670

> <Gold.PLP.Chemscore.Hbond>
1.0000

> <Gold.PLP.Chemscore.CHOScore>
0.0000

> <Gold.PLP.Chemscore.Metal>
0.0000

> <Gold.Chemscore.Hbonds>
donor molecule, donor type, donor heavy atom, donor atom, acceptor molecule, acceptor atom, score
      P1  H  3712  3721       L1    19  1.00

> <Gold.PLP.Chemscore.Internal.Correction>
0.8446

