#       Name:                EN300-1719111_i001
#       Creating user name   fsindt
#       Creation time:       Thu Mar  2 00:30:27 2023


#       File generated by GOLD software.
#

@<TRIPOS>MOLECULE
EN300-1719111_i001|acide_1|mol2|10811|dock16
    40    42     1
SMALL
USER_CHARGES


@<TRIPOS>ATOM
      1 C1           1.5229 -18.5190  13.0523 C.3            1 <1>                0.0000
      2 C2           0.1907 -18.3893  13.7938 C.3            1 <1>                0.0000
      3 C3          -0.6849 -19.6055  13.4858 C.3            1 <1>                0.0000
      4 C4           0.4504 -18.3160  15.2998 C.3            1 <1>                0.0000
      5 O5          -0.4888 -17.1815  13.3604 O.3            1 <1>                0.0000
      6 C6           0.2374 -16.0481  13.3326 C.2            1 <1>                0.0000
      7 O7           1.1560 -15.8958  14.1133 O.2            1 <1>                0.0000
      8 N8          -0.0544 -15.0825  12.4387 N.am           1 <1>                0.0000
      9 C9           0.4858 -13.7507  12.1068 C.3            1 <1>                0.0000
     10 C10         -0.0752 -13.9471  10.7166 C.3            1 <1>                0.0000
     11 C11         -1.0485 -14.9022  11.3640 C.3            1 <1>                0.0000
     12 O12          0.7894 -14.4471   9.6913 O.3            1 <1>                0.0000
     13 C13          0.5704 -13.4737   8.6176 C.3            1 <1>                0.0000
     14 C14          1.3649 -13.6628   7.3238 C.3            1 <1>                0.0000
     15 C15          0.5959 -12.1041   9.3420 C.3            1 <1>                0.0000
     16 C16         -0.6736 -12.6981  10.0181 C.3            1 <1>                0.0000
     17 C17         -0.9506 -13.1527   8.5285 C.3            1 <1>                0.0000
     18 C18         -1.6457 -11.8318  10.7769 C.2            1 <1>                0.0000
     19 O19         -2.7655 -11.6404  10.3344 O.co2          1 <1>                0.0000
     20 O20         -1.3121 -11.3225  11.8332 O.co2          1 <1>               -1.0000
     21 H21          1.3380 -18.5712  11.9794 H              1 <1>                0.0000
     22 H22          2.1467 -17.6525  13.2718 H              1 <1>                0.0000
     23 H23          2.0329 -19.4257  13.3777 H              1 <1>                0.0000
     24 H24         -0.1747 -20.5122  13.8111 H              1 <1>                0.0000
     25 H25         -1.6338 -19.5131  14.0140 H              1 <1>                0.0000
     26 H26         -0.8698 -19.6578  12.4129 H              1 <1>                0.0000
     27 H27          1.0741 -17.4495  15.5192 H              1 <1>                0.0000
     28 H28         -0.4986 -18.2236  15.8280 H              1 <1>                0.0000
     29 H29          0.9605 -19.2227  15.6251 H              1 <1>                0.0000
     30 H30          0.0117 -12.9383  12.6575 H              1 <1>                0.0000
     31 H31          1.5745 -13.7026  12.1348 H              1 <1>                0.0000
     32 H32         -1.2294 -15.8036  10.7784 H              1 <1>                0.0000
     33 H33         -1.9681 -14.4249  11.7021 H              1 <1>                0.0000
     34 H34          1.1862 -14.6637   6.9308 H              1 <1>                0.0000
     35 H35          1.0465 -12.9222   6.5903 H              1 <1>                0.0000
     36 H36          2.4282 -13.5374   7.5288 H              1 <1>                0.0000
     37 H37          1.4425 -11.9631  10.0140 H              1 <1>                0.0000
     38 H38          0.4055 -11.2469   8.6961 H              1 <1>                0.0000
     39 H39         -1.2033 -12.3413   7.8459 H              1 <1>                0.0000
     40 H40         -1.6012 -14.0220   8.4328 H              1 <1>                0.0000
@<TRIPOS>BOND
    1    1    2 1     
    2    1   21 1     
    3    1   22 1     
    4    1   23 1     
    5    2    3 1     
    6    2    4 1     
    7    2    5 1     
    8    3   24 1     
    9    3   25 1     
   10    3   26 1     
   11    4   27 1     
   12    4   28 1     
   13    4   29 1     
   14    5    6 1     
   15    6    7 2     
   16    6    8 am    
   17    8    9 1     
   18    8   11 1     
   19    9   10 1     
   20    9   30 1     
   21    9   31 1     
   22   10   11 1     
   23   10   12 1     
   24   10   16 1     
   25   11   32 1     
   26   11   33 1     
   27   12   13 1     
   28   13   14 1     
   29   13   15 1     
   30   13   17 1     
   31   14   34 1     
   32   14   35 1     
   33   14   36 1     
   34   15   16 1     
   35   15   37 1     
   36   15   38 1     
   37   16   17 1     
   38   16   18 1     
   39   17   39 1     
   40   17   40 1     
   41   18   19 ar    
   42   18   20 ar    
@<TRIPOS>SUBSTRUCTURE
      1 ****           1
@<TRIPOS>COMMENT
> <Gold.Version>
2022.2.0

> <Gold.Id.Protein>
3pbl|protein|mol2

> <Gold.Protein.RotatedTorsions>
[ 1303 1298 1297 1294 ] final   64.88 input  179.99 | X-H torsion
[ 2461 2456 2455 2452 ] final  -39.00 input   30.03 | X-H torsion
[ 2515 2510 2509 2506 ] final -133.02 input  -89.99 | X-H torsion
[ 3721 3712 3711 3710 ] final  -67.55 input -179.91 | X-H torsion
[ 3841 3832 3831 3830 ] final -164.96 input -179.91 | X-H torsion
[ 3767 3762 3761 3758 ] final  104.90 input  -89.99 | X-H torsion
[ 2472 2467 2466 2463 ] final   28.47 input  -89.97 | X-H torsion

> <Gold.Protein.ActiveResidues>
 VAL82   VAL86   LEU89   PHE106  VAL107  ASP110  VAL111  MET112  CYS114  THR115 
 CYS181  SER182  ILE183  PHE188  VAL189  ILE190  SER192  SER193  SER196  TRP342 
 PHE345  PHE346  HIS349  VAL350  TYR365  THR369  GLY372  TYR373 

> <Gold.Protein.RotatedAtoms>
    4.0752  -10.2616    4.6771 H   0  0  0  0  0  0  0  0  0  0  0  0  # atno 1303 bound_to 1298
    0.5250   -8.3172    7.1792 H   0  0  0  0  0  0  0  0  0  0  0  0  # atno 2461 bound_to 2456
   -4.1436   -4.8056    7.7723 H   0  0  0  0  0  0  0  0  0  0  0  0  # atno 2472 bound_to 2467
    2.6424   -9.2513    5.1966 H   0  0  0  0  0  0  0  0  0  0  0  0  # atno 2515 bound_to 2510
   -2.8563  -17.2320   14.7579 H   0  0  0  0  0  0  0  0  0  0  0  0  # atno 3721 bound_to 3712
   -4.0523  -23.2821   10.6957 H   0  0  0  0  0  0  0  0  0  0  0  0  # atno 3767 bound_to 3762
    2.8085  -19.8881    8.3589 H   0  0  0  0  0  0  0  0  0  0  0  0  # atno 3841 bound_to 3832
    3.4594   -9.0463    3.7770 LP  0  0  0  0  0  0  0  0  0  0  0  0  # atno 4297 bound_to 1298
    4.8276   -8.8130    4.6373 LP  0  0  0  0  0  0  0  0  0  0  0  0  # atno 4298 bound_to 1298
    1.1176   -9.2855    8.3533 LP  0  0  0  0  0  0  0  0  0  0  0  0  # atno 4299 bound_to 2456
    2.0949   -8.2053    7.6154 LP  0  0  0  0  0  0  0  0  0  0  0  0  # atno 4300 bound_to 2456
    2.0286   -7.9654    5.9937 LP  0  0  0  0  0  0  0  0  0  0  0  0  # atno 4301 bound_to 2510
    2.6256   -7.7820    4.4849 LP  0  0  0  0  0  0  0  0  0  0  0  0  # atno 4302 bound_to 2510
   -3.5221  -16.7083   13.3940 LP  0  0  0  0  0  0  0  0  0  0  0  0  # atno 4306 bound_to 3712
   -2.7080  -18.1234   13.4308 LP  0  0  0  0  0  0  0  0  0  0  0  0  # atno 4307 bound_to 3712
    2.5930  -21.1574    9.3172 LP  0  0  0  0  0  0  0  0  0  0  0  0  # atno 4314 bound_to 3832
    1.3922  -20.0741    9.0907 LP  0  0  0  0  0  0  0  0  0  0  0  0  # atno 4315 bound_to 3832
   -5.4366  -22.5305   10.2649 LP  0  0  0  0  0  0  0  0  0  0  0  0  # atno 4318 bound_to 3762
   -4.6383  -22.0628   11.6104 LP  0  0  0  0  0  0  0  0  0  0  0  0  # atno 4319 bound_to 3762
   -4.0642   -5.3501    9.3097 LP  0  0  0  0  0  0  0  0  0  0  0  0  # atno 4320 bound_to 2467
   -5.5090   -5.2378    8.5569 LP  0  0  0  0  0  0  0  0  0  0  0  0  # atno 4321 bound_to 2467

> <Gold.Score>
     Score     S(PLP)   S(hbond)     S(cho)   S(metal)  DE(clash)   DE(tors)     intcor
     38.54     -36.60       0.83       0.00       0.00       0.00       0.68       0.82

> <Gold.PLP.Fitness>
38.5404

> <Gold.PLP.PLP>
-36.5987

> <Gold.PLP.part.hbond>
-1.9298

> <Gold.PLP.part.metal>
0.0000

> <Gold.PLP.part.buried>
-8.6781

> <Gold.PLP.part.nonpolar>
-27.0428

> <Gold.PLP.part.repulsive>
0.1612

> <Gold.PLP.ligand.clash>
0.0000

> <Gold.PLP.ligand.torsion>
0.6810

> <Gold.PLP.Chemscore.Hbond>
0.8288

> <Gold.PLP.Chemscore.CHOScore>
0.0000

> <Gold.PLP.Chemscore.Metal>
0.0000

> <Gold.Chemscore.Hbonds>
donor molecule, donor type, donor heavy atom, donor atom, acceptor molecule, acceptor atom, score
      P1  H  2305  2313       L1     7  0.83

> <Gold.PLP.Chemscore.Internal.Correction>
0.8174

