#       Name:                EN300-1719111_i001
#       Creating user name   fsindt
#       Creation time:       Thu Mar  2 00:30:12 2023


#       File generated by GOLD software.
#

@<TRIPOS>MOLECULE
EN300-1719111_i001|acide_1|mol2|10811|dock2
    40    42     1
SMALL
USER_CHARGES


@<TRIPOS>ATOM
      1 C1          -0.4628 -10.3575  11.1394 C.3            1 <1>                0.0000
      2 C2          -1.6275 -11.1263  10.5121 C.3            1 <1>                0.0000
      3 C3          -2.9506 -10.5636  11.0352 C.3            1 <1>                0.0000
      4 C4          -1.5761 -10.9774   8.9903 C.3            1 <1>                0.0000
      5 O5          -1.5259 -12.5311  10.8647 O.3            1 <1>                0.0000
      6 C6          -0.3466 -13.1366  10.6295 C.2            1 <1>                0.0000
      7 O7           0.4336 -12.6577   9.8304 O.2            1 <1>                0.0000
      8 N8          -0.0313 -14.2739  11.2805 N.am           1 <1>                0.0000
      9 C9          -0.6854 -15.1330  12.2853 C.3            1 <1>                0.0000
     10 C10          0.1564 -16.2722  11.7565 C.3            1 <1>                0.0000
     11 C11          1.1147 -15.2025  11.2920 C.3            1 <1>                0.0000
     12 O12         -0.4114 -17.1492  10.7779 O.3            1 <1>                0.0000
     13 C13         -0.1332 -18.4647  11.3613 C.3            1 <1>                0.0000
     14 C14         -0.6264 -19.6930  10.5939 C.3            1 <1>                0.0000
     15 C15         -0.4976 -18.2960  12.8580 C.3            1 <1>                0.0000
     16 C16          0.6900 -17.2923  12.7960 C.3            1 <1>                0.0000
     17 C17          1.3130 -18.4664  11.9383 C.3            1 <1>                0.0000
     18 C18          1.3602 -16.7803  14.0449 C.2            1 <1>                0.0000
     19 O19          2.4283 -17.2491  14.3996 O.co2          1 <1>                0.0000
     20 O20          0.8341 -15.8972  14.7006 O.co2          1 <1>               -1.0000
     21 H21         -0.4993 -10.4635  12.2235 H              1 <1>                0.0000
     22 H22          0.4798 -10.7584  10.7666 H              1 <1>                0.0000
     23 H23         -0.5391  -9.3028  10.8746 H              1 <1>                0.0000
     24 H24         -3.0268  -9.5089  10.7705 H              1 <1>                0.0000
     25 H25         -3.7803 -11.1112  10.5884 H              1 <1>                0.0000
     26 H26         -2.9872 -10.6696  12.1194 H              1 <1>                0.0000
     27 H27         -0.6336 -11.3783   8.6175 H              1 <1>                0.0000
     28 H28         -2.4059 -11.5250   8.5434 H              1 <1>                0.0000
     29 H29         -1.6524  -9.9227   8.7255 H              1 <1>                0.0000
     30 H30         -0.4502 -14.8580  13.3134 H              1 <1>                0.0000
     31 H31         -1.7541 -15.2656  12.1161 H              1 <1>                0.0000
     32 H32          1.5348 -15.3926  10.3043 H              1 <1>                0.0000
     33 H33          1.8721 -14.9445  12.0321 H              1 <1>                0.0000
     34 H34         -0.2311 -19.6697   9.5784 H              1 <1>                0.0000
     35 H35         -0.2835 -20.5973  11.0966 H              1 <1>                0.0000
     36 H36         -1.7159 -19.6869  10.5600 H              1 <1>                0.0000
     37 H37         -1.4695 -17.8365  13.0382 H              1 <1>                0.0000
     38 H38         -0.3129 -19.1783  13.4710 H              1 <1>                0.0000
     39 H39          1.5719 -19.3579  12.5096 H              1 <1>                0.0000
     40 H40          2.0894 -18.1553  11.2394 H              1 <1>                0.0000
@<TRIPOS>BOND
    1    1    2 1     
    2    1   21 1     
    3    1   22 1     
    4    1   23 1     
    5    2    3 1     
    6    2    4 1     
    7    2    5 1     
    8    3   24 1     
    9    3   25 1     
   10    3   26 1     
   11    4   27 1     
   12    4   28 1     
   13    4   29 1     
   14    5    6 1     
   15    6    7 2     
   16    6    8 am    
   17    8    9 1     
   18    8   11 1     
   19    9   10 1     
   20    9   30 1     
   21    9   31 1     
   22   10   11 1     
   23   10   12 1     
   24   10   16 1     
   25   11   32 1     
   26   11   33 1     
   27   12   13 1     
   28   13   14 1     
   29   13   15 1     
   30   13   17 1     
   31   14   34 1     
   32   14   35 1     
   33   14   36 1     
   34   15   16 1     
   35   15   37 1     
   36   15   38 1     
   37   16   17 1     
   38   16   18 1     
   39   17   39 1     
   40   17   40 1     
   41   18   19 ar    
   42   18   20 ar    
@<TRIPOS>SUBSTRUCTURE
      1 ****           1
@<TRIPOS>COMMENT
> <Gold.Version>
2022.2.0

> <Gold.Id.Protein>
3pbl|protein|mol2

> <Gold.Protein.RotatedTorsions>
[ 1303 1298 1297 1294 ] final  -44.55 input  179.99 | X-H torsion
[ 2461 2456 2455 2452 ] final -176.39 input   30.03 | X-H torsion
[ 2515 2510 2509 2506 ] final -109.78 input  -89.99 | X-H torsion
[ 3721 3712 3711 3710 ] final -153.27 input -179.91 | X-H torsion
[ 3841 3832 3831 3830 ] final -135.49 input -179.91 | X-H torsion
[ 3767 3762 3761 3758 ] final    2.96 input  -89.99 | X-H torsion
[ 2472 2467 2466 2463 ] final  151.72 input  -89.97 | X-H torsion

> <Gold.Protein.ActiveResidues>
 VAL82   VAL86   LEU89   PHE106  VAL107  ASP110  VAL111  MET112  CYS114  THR115 
 CYS181  SER182  ILE183  PHE188  VAL189  ILE190  SER192  SER193  SER196  TRP342 
 PHE345  PHE346  HIS349  VAL350  TYR365  THR369  GLY372  TYR373 

> <Gold.Protein.RotatedAtoms>
    3.3909   -9.2052    3.7917 H   0  0  0  0  0  0  0  0  0  0  0  0  # atno 1303 bound_to 1298
    1.3942   -9.2352    8.3997 H   0  0  0  0  0  0  0  0  0  0  0  0  # atno 2461 bound_to 2456
   -5.5048   -5.2562    8.6070 H   0  0  0  0  0  0  0  0  0  0  0  0  # atno 2472 bound_to 2467
    2.7613   -9.1351    4.8553 H   0  0  0  0  0  0  0  0  0  0  0  0  # atno 2515 bound_to 2510
   -3.3314  -16.5298   13.9394 H   0  0  0  0  0  0  0  0  0  0  0  0  # atno 3721 bound_to 3712
   -5.2957  -22.7530   10.1299 H   0  0  0  0  0  0  0  0  0  0  0  0  # atno 3767 bound_to 3762
    2.4356  -19.6547    8.3808 H   0  0  0  0  0  0  0  0  0  0  0  0  # atno 3841 bound_to 3832
    4.7505   -8.6939    4.5375 LP  0  0  0  0  0  0  0  0  0  0  0  0  # atno 4297 bound_to 1298
    4.2211  -10.2222    4.7626 LP  0  0  0  0  0  0  0  0  0  0  0  0  # atno 4298 bound_to 1298
    1.9540   -8.0565    7.4175 LP  0  0  0  0  0  0  0  0  0  0  0  0  # atno 4299 bound_to 2456
    0.3896   -8.5167    7.3311 LP  0  0  0  0  0  0  0  0  0  0  0  0  # atno 4300 bound_to 2456
    2.0652   -8.3300    6.0935 LP  0  0  0  0  0  0  0  0  0  0  0  0  # atno 4301 bound_to 2510
    2.4701   -7.5337    4.7266 LP  0  0  0  0  0  0  0  0  0  0  0  0  # atno 4302 bound_to 2510
   -2.9163  -17.8156   13.0719 LP  0  0  0  0  0  0  0  0  0  0  0  0  # atno 4306 bound_to 3712
   -2.7653  -17.8268   14.6979 LP  0  0  0  0  0  0  0  0  0  0  0  0  # atno 4307 bound_to 3712
    2.9446  -21.0456    8.9993 LP  0  0  0  0  0  0  0  0  0  0  0  0  # atno 4314 bound_to 3832
    1.4712  -20.4555    9.3833 LP  0  0  0  0  0  0  0  0  0  0  0  0  # atno 4315 bound_to 3832
   -4.8896  -21.9558   11.4961 LP  0  0  0  0  0  0  0  0  0  0  0  0  # atno 4318 bound_to 3762
   -3.9423  -23.1663   10.9449 LP  0  0  0  0  0  0  0  0  0  0  0  0  # atno 4319 bound_to 3762
   -4.1918   -4.8018    7.7492 LP  0  0  0  0  0  0  0  0  0  0  0  0  # atno 4320 bound_to 2467
   -4.0205   -5.3356    9.2829 LP  0  0  0  0  0  0  0  0  0  0  0  0  # atno 4321 bound_to 2467

> <Gold.Score>
     Score     S(PLP)   S(hbond)     S(cho)   S(metal)  DE(clash)   DE(tors)     intcor
     46.79     -44.41       1.00       0.00       0.00       0.00       0.73       0.84

> <Gold.PLP.Fitness>
46.7905

> <Gold.PLP.PLP>
-44.4085

> <Gold.PLP.part.hbond>
-1.0000

> <Gold.PLP.part.metal>
0.0000

> <Gold.PLP.part.buried>
-1.7908

> <Gold.PLP.part.nonpolar>
-42.8848

> <Gold.PLP.part.repulsive>
0.2466

> <Gold.PLP.ligand.clash>
0.0000

> <Gold.PLP.ligand.torsion>
0.7313

> <Gold.PLP.Chemscore.Hbond>
1.0000

> <Gold.PLP.Chemscore.CHOScore>
0.0000

> <Gold.PLP.Chemscore.Metal>
0.0000

> <Gold.Chemscore.Hbonds>
donor molecule, donor type, donor heavy atom, donor atom, acceptor molecule, acceptor atom, score
      P1  H  2305  2313       L1    20  1.00

> <Gold.PLP.Chemscore.Internal.Correction>
0.8446

