#       Name:                EN300-1719111_i001
#       Creating user name   fsindt
#       Creation time:       Thu Mar  2 00:30:29 2023


#       File generated by GOLD software.
#

@<TRIPOS>MOLECULE
EN300-1719111_i001|acide_1|mol2|10811|dock17
    40    42     1
SMALL
USER_CHARGES


@<TRIPOS>ATOM
      1 C1          -0.0999 -17.3001  14.0921 C.3            1 <1>                0.0000
      2 C2           0.3588 -17.8988  12.7608 C.3            1 <1>                0.0000
      3 C3           1.8170 -18.3469  12.8787 C.3            1 <1>                0.0000
      4 C4          -0.5185 -19.1033  12.4141 C.3            1 <1>                0.0000
      5 O5           0.2430 -16.8985  11.7148 O.3            1 <1>                0.0000
      6 C6           0.8468 -15.7148  11.9315 C.2            1 <1>                0.0000
      7 O7           1.6580 -15.6019  12.8291 O.2            1 <1>                0.0000
      8 N8           0.5515 -14.6551  11.1527 N.am           1 <1>                0.0000
      9 C9          -0.3428 -14.4011  10.0076 C.3            1 <1>                0.0000
     10 C10         -0.3490 -12.9479  10.4249 C.3            1 <1>                0.0000
     11 C11          0.9780 -13.2449  11.0803 C.3            1 <1>                0.0000
     12 O12         -1.4221 -12.4733  11.2448 O.3            1 <1>                0.0000
     13 C13         -1.8552 -11.2832  10.5070 C.3            1 <1>                0.0000
     14 C14         -3.0370 -10.4948  11.0751 C.3            1 <1>                0.0000
     15 C15         -1.8799 -11.7466   9.0285 C.3            1 <1>                0.0000
     16 C16         -0.3526 -11.8913   9.2893 C.3            1 <1>                0.0000
     17 C17         -0.5978 -10.5075  10.0154 C.3            1 <1>                0.0000
     18 C18          0.6342 -12.0301   8.1588 C.2            1 <1>                0.0000
     19 O19          0.7278 -11.1504   7.3199 O.co2          1 <1>                0.0000
     20 O20          1.3388 -13.0223   8.0833 O.co2          1 <1>               -1.0000
     21 H21          0.5251 -16.4420  14.3392 H              1 <1>                0.0000
     22 H22         -1.1387 -16.9809  14.0081 H              1 <1>                0.0000
     23 H23         -0.0129 -18.0511  14.8774 H              1 <1>                0.0000
     24 H24          1.9039 -19.0979  13.6640 H              1 <1>                0.0000
     25 H25          2.1437 -18.7734  11.9304 H              1 <1>                0.0000
     26 H26          2.4420 -17.4888  13.1258 H              1 <1>                0.0000
     27 H27         -1.5573 -18.7841  12.3301 H              1 <1>                0.0000
     28 H28         -0.1917 -19.5298  11.4657 H              1 <1>                0.0000
     29 H29         -0.4315 -19.8543  13.1994 H              1 <1>                0.0000
     30 H30          0.1279 -14.5748   9.0400 H              1 <1>                0.0000
     31 H31         -1.3154 -14.8849  10.0985 H              1 <1>                0.0000
     32 H32          1.0980 -12.7726  12.0552 H              1 <1>                0.0000
     33 H33          1.8335 -13.0857  10.4240 H              1 <1>                0.0000
     34 H34         -2.8219 -10.2093  12.1048 H              1 <1>                0.0000
     35 H35         -3.1979  -9.5987  10.4757 H              1 <1>                0.0000
     36 H36         -3.9332 -11.1148  11.0495 H              1 <1>                0.0000
     37 H37         -2.4011 -12.6886   8.8582 H              1 <1>                0.0000
     38 H38         -2.1451 -10.9670   8.3143 H              1 <1>                0.0000
     39 H39         -0.8121  -9.6750   9.3452 H              1 <1>                0.0000
     40 H40          0.1291 -10.2670  10.7912 H              1 <1>                0.0000
@<TRIPOS>BOND
    1    1    2 1     
    2    1   21 1     
    3    1   22 1     
    4    1   23 1     
    5    2    3 1     
    6    2    4 1     
    7    2    5 1     
    8    3   24 1     
    9    3   25 1     
   10    3   26 1     
   11    4   27 1     
   12    4   28 1     
   13    4   29 1     
   14    5    6 1     
   15    6    7 2     
   16    6    8 am    
   17    8    9 1     
   18    8   11 1     
   19    9   10 1     
   20    9   30 1     
   21    9   31 1     
   22   10   11 1     
   23   10   12 1     
   24   10   16 1     
   25   11   32 1     
   26   11   33 1     
   27   12   13 1     
   28   13   14 1     
   29   13   15 1     
   30   13   17 1     
   31   14   34 1     
   32   14   35 1     
   33   14   36 1     
   34   15   16 1     
   35   15   37 1     
   36   15   38 1     
   37   16   17 1     
   38   16   18 1     
   39   17   39 1     
   40   17   40 1     
   41   18   19 ar    
   42   18   20 ar    
@<TRIPOS>SUBSTRUCTURE
      1 ****           1
@<TRIPOS>COMMENT
> <Gold.Version>
2022.2.0

> <Gold.Id.Protein>
3pbl|protein|mol2

> <Gold.Protein.RotatedTorsions>
[ 1303 1298 1297 1294 ] final   73.46 input  179.99 | X-H torsion
[ 2461 2456 2455 2452 ] final -129.46 input   30.03 | X-H torsion
[ 2515 2510 2509 2506 ] final   81.79 input  -89.99 | X-H torsion
[ 3721 3712 3711 3710 ] final   62.11 input -179.91 | X-H torsion
[ 3841 3832 3831 3830 ] final   65.56 input -179.91 | X-H torsion
[ 3767 3762 3761 3758 ] final -147.12 input  -89.99 | X-H torsion
[ 2472 2467 2466 2463 ] final -102.64 input  -89.97 | X-H torsion

> <Gold.Protein.ActiveResidues>
 VAL82   VAL86   LEU89   PHE106  VAL107  ASP110  VAL111  MET112  CYS114  THR115 
 CYS181  SER182  ILE183  PHE188  VAL189  ILE190  SER192  SER193  SER196  TRP342 
 PHE345  PHE346  HIS349  VAL350  TYR365  THR369  GLY372  TYR373 

> <Gold.Protein.RotatedAtoms>
    4.1934  -10.2316    4.7477 H   0  0  0  0  0  0  0  0  0  0  0  0  # atno 1303 bound_to 1298
    0.6872   -9.2288    8.1465 H   0  0  0  0  0  0  0  0  0  0  0  0  # atno 2461 bound_to 2456
   -4.2256   -5.3949    9.3825 H   0  0  0  0  0  0  0  0  0  0  0  0  # atno 2472 bound_to 2467
    2.0632   -7.6395    5.7457 H   0  0  0  0  0  0  0  0  0  0  0  0  # atno 2515 bound_to 2510
   -2.6026  -17.8919   13.3585 H   0  0  0  0  0  0  0  0  0  0  0  0  # atno 3721 bound_to 3712
   -4.4731  -22.1648   11.6455 H   0  0  0  0  0  0  0  0  0  0  0  0  # atno 3767 bound_to 3762
    2.5454  -20.9535    9.4757 H   0  0  0  0  0  0  0  0  0  0  0  0  # atno 3841 bound_to 3832
    3.4020   -9.1747    3.7870 LP  0  0  0  0  0  0  0  0  0  0  0  0  # atno 4297 bound_to 1298
    4.7667   -8.7146    4.5568 LP  0  0  0  0  0  0  0  0  0  0  0  0  # atno 4298 bound_to 1298
    2.1532   -8.5326    7.9627 LP  0  0  0  0  0  0  0  0  0  0  0  0  # atno 4299 bound_to 2456
    0.8972   -8.0469    7.0390 LP  0  0  0  0  0  0  0  0  0  0  0  0  # atno 4300 bound_to 2456
    2.7580   -8.1505    4.3594 LP  0  0  0  0  0  0  0  0  0  0  0  0  # atno 4301 bound_to 2510
    2.4756   -9.2094    5.5700 LP  0  0  0  0  0  0  0  0  0  0  0  0  # atno 4302 bound_to 2510
   -2.9668  -17.4501   14.8585 LP  0  0  0  0  0  0  0  0  0  0  0  0  # atno 4306 bound_to 3712
   -3.5561  -16.6197   13.5819 LP  0  0  0  0  0  0  0  0  0  0  0  0  # atno 4307 bound_to 3712
    1.4270  -19.9330    8.9428 LP  0  0  0  0  0  0  0  0  0  0  0  0  # atno 4314 bound_to 3832
    2.8620  -20.0679    8.1750 LP  0  0  0  0  0  0  0  0  0  0  0  0  # atno 4315 bound_to 3832
   -4.1631  -23.3242   10.5380 LP  0  0  0  0  0  0  0  0  0  0  0  0  # atno 4318 bound_to 3762
   -5.4911  -22.3859   10.3878 LP  0  0  0  0  0  0  0  0  0  0  0  0  # atno 4319 bound_to 3762
   -5.5003   -5.1751    8.3858 LP  0  0  0  0  0  0  0  0  0  0  0  0  # atno 4320 bound_to 2467
   -3.9910   -4.8235    7.8709 LP  0  0  0  0  0  0  0  0  0  0  0  0  # atno 4321 bound_to 2467

> <Gold.Score>
     Score     S(PLP)   S(hbond)     S(cho)   S(metal)  DE(clash)   DE(tors)     intcor
     41.45     -39.63       0.69       0.00       0.00       0.00       0.53       0.82

> <Gold.PLP.Fitness>
41.4530

> <Gold.PLP.PLP>
-39.6257

> <Gold.PLP.part.hbond>
-1.0000

> <Gold.PLP.part.metal>
0.0000

> <Gold.PLP.part.buried>
-6.3518

> <Gold.PLP.part.nonpolar>
-32.7513

> <Gold.PLP.part.repulsive>
0.2646

> <Gold.PLP.ligand.clash>
0.0000

> <Gold.PLP.ligand.torsion>
0.5271

> <Gold.PLP.Chemscore.Hbond>
0.6880

> <Gold.PLP.Chemscore.CHOScore>
0.0000

> <Gold.PLP.Chemscore.Metal>
0.0000

> <Gold.Chemscore.Hbonds>
donor molecule, donor type, donor heavy atom, donor atom, acceptor molecule, acceptor atom, score
      P1  H  2456  2461       L1    19  0.69

> <Gold.PLP.Chemscore.Internal.Correction>
0.8174

