#       Name:                EN300-1719111_i001
#       Creating user name   fsindt
#       Creation time:       Thu Mar  2 00:30:32 2023


#       File generated by GOLD software.
#

@<TRIPOS>MOLECULE
EN300-1719111_i001|acide_1|mol2|10811|dock19
    40    42     1
SMALL
USER_CHARGES


@<TRIPOS>ATOM
      1 C1           0.1293 -11.0939  10.5431 C.3            1 <1>                0.0000
      2 C2          -1.1125 -11.9344  10.2387 C.3            1 <1>                0.0000
      3 C3          -2.3581 -11.2073  10.7493 C.3            1 <1>                0.0000
      4 C4          -1.2281 -12.1447   8.7277 C.3            1 <1>                0.0000
      5 O5          -0.9990 -13.2224  10.8994 O.3            1 <1>                0.0000
      6 C6           0.1243 -13.9290  10.6723 C.2            1 <1>                0.0000
      7 O7           0.8571 -13.6257   9.7517 O.2            1 <1>                0.0000
      8 N8           0.4360 -14.9727  11.4661 N.am           1 <1>                0.0000
      9 C9          -0.1731 -15.6279  12.6388 C.3            1 <1>                0.0000
     10 C10          0.5627 -16.8842  12.2310 C.3            1 <1>                0.0000
     11 C11          1.5307 -15.9588  11.5346 C.3            1 <1>                0.0000
     12 O12         -0.1292 -17.8614  11.4464 O.3            1 <1>                0.0000
     13 C13          0.1309 -19.0887  12.2041 C.3            1 <1>                0.0000
     14 C14         -0.4864 -20.3854  11.6764 C.3            1 <1>                0.0000
     15 C15         -0.0966 -18.6740  13.6797 C.3            1 <1>                0.0000
     16 C16          1.1304 -17.7674  13.3728 C.3            1 <1>                0.0000
     17 C17          1.6188 -19.0940  12.6629 C.3            1 <1>                0.0000
     18 C18          1.9286 -17.1160  14.4725 C.2            1 <1>                0.0000
     19 O19          1.9842 -15.9004  14.5475 O.co2          1 <1>                0.0000
     20 O20          2.5189 -17.8048  15.2873 O.co2          1 <1>               -1.0000
     21 H21          0.2117 -10.9441  11.6196 H              1 <1>                0.0000
     22 H22          1.0167 -11.6120  10.1794 H              1 <1>                0.0000
     23 H23          0.0441 -10.1270  10.0472 H              1 <1>                0.0000
     24 H24         -2.4432 -10.2404  10.2533 H              1 <1>                0.0000
     25 H25         -3.2427 -11.8060  10.5324 H              1 <1>                0.0000
     26 H26         -2.2757 -11.0575  11.8257 H              1 <1>                0.0000
     27 H27         -0.3407 -12.6627   8.3639 H              1 <1>                0.0000
     28 H28         -2.1127 -12.7434   8.5108 H              1 <1>                0.0000
     29 H29         -1.3132 -11.1777   8.2317 H              1 <1>                0.0000
     30 H30          0.1617 -15.2163  13.5909 H              1 <1>                0.0000
     31 H31         -1.2576 -15.7174  12.5738 H              1 <1>                0.0000
     32 H32          1.8557 -16.3215  10.5595 H              1 <1>                0.0000
     33 H33          2.3600 -15.6401  12.1661 H              1 <1>                0.0000
     34 H34         -0.1778 -20.5402  10.6425 H              1 <1>                0.0000
     35 H35         -0.1481 -21.2233  12.2859 H              1 <1>                0.0000
     36 H36         -1.5732 -20.3163  11.7247 H              1 <1>                0.0000
     37 H37         -1.0255 -18.1327  13.8596 H              1 <1>                0.0000
     38 H38          0.0948 -19.4636  14.4064 H              1 <1>                0.0000
     39 H39          1.8801 -19.9036  13.3445 H              1 <1>                0.0000
     40 H40          2.3481 -18.9410  11.8674 H              1 <1>                0.0000
@<TRIPOS>BOND
    1    1    2 1     
    2    1   21 1     
    3    1   22 1     
    4    1   23 1     
    5    2    3 1     
    6    2    4 1     
    7    2    5 1     
    8    3   24 1     
    9    3   25 1     
   10    3   26 1     
   11    4   27 1     
   12    4   28 1     
   13    4   29 1     
   14    5    6 1     
   15    6    7 2     
   16    6    8 am    
   17    8    9 1     
   18    8   11 1     
   19    9   10 1     
   20    9   30 1     
   21    9   31 1     
   22   10   11 1     
   23   10   12 1     
   24   10   16 1     
   25   11   32 1     
   26   11   33 1     
   27   12   13 1     
   28   13   14 1     
   29   13   15 1     
   30   13   17 1     
   31   14   34 1     
   32   14   35 1     
   33   14   36 1     
   34   15   16 1     
   35   15   37 1     
   36   15   38 1     
   37   16   17 1     
   38   16   18 1     
   39   17   39 1     
   40   17   40 1     
   41   18   19 ar    
   42   18   20 ar    
@<TRIPOS>SUBSTRUCTURE
      1 ****           1
@<TRIPOS>COMMENT
> <Gold.Version>
2022.2.0

> <Gold.Id.Protein>
3pbl|protein|mol2

> <Gold.Protein.RotatedTorsions>
[ 1303 1298 1297 1294 ] final -142.85 input  179.99 | X-H torsion
[ 2461 2456 2455 2452 ] final  -88.48 input   30.03 | X-H torsion
[ 2515 2510 2509 2506 ] final   72.32 input  -89.99 | X-H torsion
[ 3721 3712 3711 3710 ] final   53.19 input -179.91 | X-H torsion
[ 3841 3832 3831 3830 ] final  -68.03 input -179.91 | X-H torsion
[ 3767 3762 3761 3758 ] final  124.49 input  -89.99 | X-H torsion
[ 2472 2467 2466 2463 ] final   87.87 input  -89.97 | X-H torsion

> <Gold.Protein.ActiveResidues>
 VAL82   VAL86   LEU89   PHE106  VAL107  ASP110  VAL111  MET112  CYS114  THR115 
 CYS181  SER182  ILE183  PHE188  VAL189  ILE190  SER192  SER193  SER196  TRP342 
 PHE345  PHE346  HIS349  VAL350  TYR365  THR369  GLY372  TYR373 

> <Gold.Protein.RotatedAtoms>
    4.5282   -8.5250    4.3181 H   0  0  0  0  0  0  0  0  0  0  0  0  # atno 1303 bound_to 1298
    0.3485   -8.8914    7.6912 H   0  0  0  0  0  0  0  0  0  0  0  0  # atno 2461 bound_to 2456
   -5.0720   -4.9098    7.7781 H   0  0  0  0  0  0  0  0  0  0  0  0  # atno 2472 bound_to 2467
    2.0950   -7.5484    5.6236 H   0  0  0  0  0  0  0  0  0  0  0  0  # atno 2515 bound_to 2510
   -2.5578  -17.9529   13.4700 H   0  0  0  0  0  0  0  0  0  0  0  0  # atno 3721 bound_to 3712
   -3.9357  -23.1534   10.9656 H   0  0  0  0  0  0  0  0  0  0  0  0  # atno 3767 bound_to 3762
    1.6597  -19.7443    8.9414 H   0  0  0  0  0  0  0  0  0  0  0  0  # atno 3841 bound_to 3832
    4.5041  -10.0529    4.8936 LP  0  0  0  0  0  0  0  0  0  0  0  0  # atno 4297 bound_to 1298
    3.3296   -9.5437    3.8798 LP  0  0  0  0  0  0  0  0  0  0  0  0  # atno 4298 bound_to 1298
    1.8514   -8.9972    8.3215 LP  0  0  0  0  0  0  0  0  0  0  0  0  # atno 4299 bound_to 2456
    1.5376   -7.9196    7.1354 LP  0  0  0  0  0  0  0  0  0  0  0  0  # atno 4300 bound_to 2456
    2.7928   -8.3022    4.3545 LP  0  0  0  0  0  0  0  0  0  0  0  0  # atno 4301 bound_to 2510
    2.4090   -9.1490    5.6970 LP  0  0  0  0  0  0  0  0  0  0  0  0  # atno 4302 bound_to 2510
   -3.0403  -17.3208   14.8648 LP  0  0  0  0  0  0  0  0  0  0  0  0  # atno 4306 bound_to 3712
   -3.5343  -16.6787   13.4469 LP  0  0  0  0  0  0  0  0  0  0  0  0  # atno 4307 bound_to 3712
    3.0154  -20.2773    8.2676 LP  0  0  0  0  0  0  0  0  0  0  0  0  # atno 4314 bound_to 3832
    2.2967  -21.1204    9.4674 LP  0  0  0  0  0  0  0  0  0  0  0  0  # atno 4315 bound_to 3832
   -5.2811  -22.7721   10.1222 LP  0  0  0  0  0  0  0  0  0  0  0  0  # atno 4318 bound_to 3762
   -4.9103  -21.9497   11.4833 LP  0  0  0  0  0  0  0  0  0  0  0  0  # atno 4319 bound_to 3762
   -3.6353   -5.0274    8.5452 LP  0  0  0  0  0  0  0  0  0  0  0  0  # atno 4320 bound_to 2467
   -5.0097   -5.4563    9.3156 LP  0  0  0  0  0  0  0  0  0  0  0  0  # atno 4321 bound_to 2467

> <Gold.Score>
     Score     S(PLP)   S(hbond)     S(cho)   S(metal)  DE(clash)   DE(tors)     intcor
     41.39     -39.72       0.70       0.00       0.00       0.00       0.63       0.81

> <Gold.PLP.Fitness>
41.3915

> <Gold.PLP.PLP>
-39.7240

> <Gold.PLP.part.hbond>
-1.0000

> <Gold.PLP.part.metal>
0.0000

> <Gold.PLP.part.buried>
-2.0717

> <Gold.PLP.part.nonpolar>
-39.9116

> <Gold.PLP.part.repulsive>
1.0675

> <Gold.PLP.ligand.clash>
0.0000

> <Gold.PLP.ligand.torsion>
0.6251

> <Gold.PLP.Chemscore.Hbond>
0.7040

> <Gold.PLP.Chemscore.CHOScore>
0.0000

> <Gold.PLP.Chemscore.Metal>
0.0000

> <Gold.Chemscore.Hbonds>
donor molecule, donor type, donor heavy atom, donor atom, acceptor molecule, acceptor atom, score
      P1  H  2305  2313       L1    19  0.70

> <Gold.PLP.Chemscore.Internal.Correction>
0.8058

