#       Name:                EN300-1719111_i001
#       Creating user name   fsindt
#       Creation time:       Thu Mar  2 00:30:11 2023


#       File generated by GOLD software.
#

@<TRIPOS>MOLECULE
EN300-1719111_i001
    40    42     1
SMALL
USER_CHARGES


@<TRIPOS>ATOM
      1 C1           4.4189   1.4121  -0.4584 C.3            1 <1>                0.0000
      2 C2           3.9225   0.1849   0.3089 C.3            1 <1>                0.0000
      3 C3           4.1868  -1.0749  -0.5181 C.3            1 <1>                0.0000
      4 C4           4.6637   0.0837   1.6435 C.3            1 <1>                0.0000
      5 O5           2.4972   0.3120   0.5552 O.3            1 <1>                0.0000
      6 C6           1.6972   0.4126  -0.5230 C.2            1 <1>                0.0000
      7 O7           2.1769   0.3946  -1.6393 O.2            1 <1>                0.0000
      8 N8           0.3642   0.5332  -0.3642 N.am           1 <1>                0.0000
      9 C9          -0.7998   0.6634  -1.2607 C.3            1 <1>                0.0000
     10 C10         -1.6340   0.0686  -0.1488 C.3            1 <1>                0.0000
     11 C11         -0.5635   0.5857   0.7813 C.3            1 <1>                0.0000
     12 O12         -1.8994  -1.3379  -0.1663 O.3            1 <1>                0.0000
     13 C13         -3.3545  -1.3675   0.0071 C.3            1 <1>                0.0000
     14 C14         -4.0343  -2.7382   0.0140 C.3            1 <1>                0.0000
     15 C15         -3.8686  -0.2593  -0.9462 C.3            1 <1>                0.0000
     16 C16         -3.0644   0.6388   0.0378 C.3            1 <1>                0.0000
     17 C17         -3.7564  -0.3210   1.0877 C.3            1 <1>                0.0000
     18 C18         -3.2554   2.1330   0.0826 C.2            1 <1>                0.0000
     19 O19         -4.3665   2.6003   0.2657 O.co2          1 <1>                0.0000
     20 O20         -2.2987   2.8744  -0.0643 O.co2          1 <1>               -1.0000
     21 H21          3.8909   1.4842  -1.4092 H              1 <1>                0.0000
     22 H22          4.2306   2.3096   0.1308 H              1 <1>                0.0000
     23 H23          5.4889   1.3166  -0.6433 H              1 <1>                0.0000
     24 H24          5.2568  -1.1703  -0.7030 H              1 <1>                0.0000
     25 H25          3.8332  -1.9491   0.0285 H              1 <1>                0.0000
     26 H26          3.6588  -1.0028  -1.4689 H              1 <1>                0.0000
     27 H27          4.4754   0.9812   2.2327 H              1 <1>                0.0000
     28 H28          4.3101  -0.7905   2.1901 H              1 <1>                0.0000
     29 H29          5.7337  -0.0117   1.4586 H              1 <1>                0.0000
     30 H30         -1.0571   1.6966  -1.4938 H              1 <1>                0.0000
     31 H31         -0.7403   0.0314  -2.1469 H              1 <1>                0.0000
     32 H32         -0.3101  -0.1082   1.5828 H              1 <1>                0.0000
     33 H33         -0.7496   1.5979   1.1402 H              1 <1>                0.0000
     34 H34         -3.5777  -3.3663   0.7789 H              1 <1>                0.0000
     35 H35         -5.0957  -2.6163   0.2299 H              1 <1>                0.0000
     36 H36         -3.9137  -3.2084  -0.9620 H              1 <1>                0.0000
     37 H37         -3.4590  -0.3045  -1.9553 H              1 <1>                0.0000
     38 H38         -4.9474  -0.1051  -0.9208 H              1 <1>                0.0000
     39 H39         -4.8307  -0.1734   1.1983 H              1 <1>                0.0000
     40 H40         -3.2284  -0.4112   2.0370 H              1 <1>                0.0000
@<TRIPOS>BOND
    1    1    2 1     
    2    1   21 1     
    3    1   22 1     
    4    1   23 1     
    5    2    3 1     
    6    2    4 1     
    7    2    5 1     
    8    3   24 1     
    9    3   25 1     
   10    3   26 1     
   11    4   27 1     
   12    4   28 1     
   13    4   29 1     
   14    5    6 1     
   15    6    7 2     
   16    6    8 am    
   17    8    9 1     
   18    8   11 1     
   19    9   10 1     
   20    9   30 1     
   21    9   31 1     
   22   10   11 1     
   23   10   12 1     
   24   10   16 1     
   25   11   32 1     
   26   11   33 1     
   27   12   13 1     
   28   13   14 1     
   29   13   15 1     
   30   13   17 1     
   31   14   34 1     
   32   14   35 1     
   33   14   36 1     
   34   15   16 1     
   35   15   37 1     
   36   15   38 1     
   37   16   17 1     
   38   16   18 1     
   39   17   39 1     
   40   17   40 1     
   41   18   19 ar    
   42   18   20 ar    
@<TRIPOS>SUBSTRUCTURE
      1 ****           1
