#       Name:                EN300-1719111_i001
#       Creating user name   fsindt
#       Creation time:       Thu Mar  2 00:30:30 2023


#       File generated by GOLD software.
#

@<TRIPOS>MOLECULE
EN300-1719111_i001|acide_1|mol2|10811|dock18
    40    42     1
SMALL
USER_CHARGES


@<TRIPOS>ATOM
      1 C1          -0.5928 -22.6000  18.7501 C.3            1 <1>                0.0000
      2 C2          -0.2276 -21.1745  19.1694 C.3            1 <1>                0.0000
      3 C3          -1.4144 -20.5362  19.8939 C.3            1 <1>                0.0000
      4 C4           0.9814 -21.2124  20.1063 C.3            1 <1>                0.0000
      5 O5           0.0978 -20.3916  17.9907 O.3            1 <1>                0.0000
      6 C6          -0.8059 -20.3850  16.9927 C.2            1 <1>                0.0000
      7 O7          -1.9432 -20.7593  17.2004 O.2            1 <1>                0.0000
      8 N8          -0.4492 -19.9631  15.7633 N.am           1 <1>                0.0000
      9 C9          -1.1238 -19.8122  14.4603 C.3            1 <1>                0.0000
     10 C10         -0.0995 -18.7495  14.1324 C.3            1 <1>                0.0000
     11 C11          0.7832 -19.4461  15.1393 C.3            1 <1>                0.0000
     12 O12         -0.4376 -17.3769  14.3578 O.3            1 <1>                0.0000
     13 C13         -0.0890 -16.7701  13.0700 C.3            1 <1>                0.0000
     14 C14         -0.3405 -15.2696  12.9084 C.3            1 <1>                0.0000
     15 C15         -0.6553 -17.7616  12.0224 C.3            1 <1>                0.0000
     16 C16          0.4103 -18.6936  12.6685 C.3            1 <1>                0.0000
     17 C17          1.2642 -17.3649  12.5805 C.3            1 <1>                0.0000
     18 C18          0.8563 -19.9689  12.0009 C.2            1 <1>                0.0000
     19 O19          0.0662 -20.8845  11.8461 O.co2          1 <1>                0.0000
     20 O20          2.0072 -20.0850  11.6156 O.co2          1 <1>               -1.0000
     21 H21         -1.4541 -22.5730  18.0827 H              1 <1>                0.0000
     22 H22          0.2528 -23.0547  18.2340 H              1 <1>                0.0000
     23 H23         -0.8371 -23.1877  19.6351 H              1 <1>                0.0000
     24 H24         -1.6587 -21.1240  20.7789 H              1 <1>                0.0000
     25 H25         -1.1543 -19.5208  20.1927 H              1 <1>                0.0000
     26 H26         -2.2758 -20.5093  19.2266 H              1 <1>                0.0000
     27 H27          1.8269 -21.6671  19.5901 H              1 <1>                0.0000
     28 H28          1.2415 -20.1970  20.4050 H              1 <1>                0.0000
     29 H29          0.7371 -21.8002  20.9912 H              1 <1>                0.0000
     30 H30         -1.0522 -20.6967  13.8274 H              1 <1>                0.0000
     31 H31         -2.1410 -19.4281  14.5380 H              1 <1>                0.0000
     32 H32          1.3429 -18.7610  15.7761 H              1 <1>                0.0000
     33 H33          1.4077 -20.2269  14.7052 H              1 <1>                0.0000
     34 H34          0.1742 -14.7275  13.7016 H              1 <1>                0.0000
     35 H35          0.0358 -14.9403  11.9399 H              1 <1>                0.0000
     36 H36         -1.4108 -15.0721  12.9686 H              1 <1>                0.0000
     37 H37         -1.6875 -18.0647  12.1978 H              1 <1>                0.0000
     38 H38         -0.4511 -17.4910  10.9864 H              1 <1>                0.0000
     39 H39          1.5477 -17.0739  11.5690 H              1 <1>                0.0000
     40 H40          2.0824 -17.3029  13.2979 H              1 <1>                0.0000
@<TRIPOS>BOND
    1    1    2 1     
    2    1   21 1     
    3    1   22 1     
    4    1   23 1     
    5    2    3 1     
    6    2    4 1     
    7    2    5 1     
    8    3   24 1     
    9    3   25 1     
   10    3   26 1     
   11    4   27 1     
   12    4   28 1     
   13    4   29 1     
   14    5    6 1     
   15    6    7 2     
   16    6    8 am    
   17    8    9 1     
   18    8   11 1     
   19    9   10 1     
   20    9   30 1     
   21    9   31 1     
   22   10   11 1     
   23   10   12 1     
   24   10   16 1     
   25   11   32 1     
   26   11   33 1     
   27   12   13 1     
   28   13   14 1     
   29   13   15 1     
   30   13   17 1     
   31   14   34 1     
   32   14   35 1     
   33   14   36 1     
   34   15   16 1     
   35   15   37 1     
   36   15   38 1     
   37   16   17 1     
   38   16   18 1     
   39   17   39 1     
   40   17   40 1     
   41   18   19 ar    
   42   18   20 ar    
@<TRIPOS>SUBSTRUCTURE
      1 ****           1
@<TRIPOS>COMMENT
> <Gold.Version>
2022.2.0

> <Gold.Id.Protein>
3pbl|protein|mol2

> <Gold.Protein.RotatedTorsions>
[ 1303 1298 1297 1294 ] final  -53.68 input  179.99 | X-H torsion
[ 2461 2456 2455 2452 ] final -154.59 input   30.03 | X-H torsion
[ 2515 2510 2509 2506 ] final   46.15 input  -89.99 | X-H torsion
[ 3721 3712 3711 3710 ] final  -35.28 input -179.91 | X-H torsion
[ 3841 3832 3831 3830 ] final   23.51 input -179.91 | X-H torsion
[ 3767 3762 3761 3758 ] final -155.19 input  -89.99 | X-H torsion
[ 2472 2467 2466 2463 ] final  -34.95 input  -89.97 | X-H torsion

> <Gold.Protein.ActiveResidues>
 VAL82   VAL86   LEU89   PHE106  VAL107  ASP110  VAL111  MET112  CYS114  THR115 
 CYS181  SER182  ILE183  PHE188  VAL189  ILE190  SER192  SER193  SER196  TRP342 
 PHE345  PHE346  HIS349  VAL350  TYR365  THR369  GLY372  TYR373 

> <Gold.Protein.RotatedAtoms>
    3.4486   -9.0674    3.7783 H   0  0  0  0  0  0  0  0  0  0  0  0  # atno 1303 bound_to 1298
    1.0481   -9.2887    8.3323 H   0  0  0  0  0  0  0  0  0  0  0  0  # atno 2461 bound_to 2456
   -3.6345   -5.0438    8.5886 H   0  0  0  0  0  0  0  0  0  0  0  0  # atno 2472 bound_to 2467
    2.2273   -7.4133    5.2410 H   0  0  0  0  0  0  0  0  0  0  0  0  # atno 2515 bound_to 2510
   -2.6332  -17.6404   14.6351 H   0  0  0  0  0  0  0  0  0  0  0  0  # atno 3721 bound_to 3712
   -4.3678  -22.2455   11.6499 H   0  0  0  0  0  0  0  0  0  0  0  0  # atno 3767 bound_to 3762
    1.9849  -20.7292    9.6219 H   0  0  0  0  0  0  0  0  0  0  0  0  # atno 3841 bound_to 3832
    4.8186   -8.7957    4.6243 LP  0  0  0  0  0  0  0  0  0  0  0  0  # atno 4297 bound_to 1298
    4.0953  -10.2583    4.6892 LP  0  0  0  0  0  0  0  0  0  0  0  0  # atno 4298 bound_to 1298
    2.1188   -8.2496    7.6679 LP  0  0  0  0  0  0  0  0  0  0  0  0  # atno 4299 bound_to 2456
    0.5709   -8.2701    7.1481 LP  0  0  0  0  0  0  0  0  0  0  0  0  # atno 4300 bound_to 2456
    2.8359   -8.7130    4.4624 LP  0  0  0  0  0  0  0  0  0  0  0  0  # atno 4301 bound_to 2510
    2.2337   -8.8733    5.9718 LP  0  0  0  0  0  0  0  0  0  0  0  0  # atno 4302 bound_to 2510
   -3.5638  -16.5566   13.9022 LP  0  0  0  0  0  0  0  0  0  0  0  0  # atno 4306 bound_to 3712
   -2.9238  -17.8036   13.0645 LP  0  0  0  0  0  0  0  0  0  0  0  0  # atno 4307 bound_to 3712
    1.8103  -19.6471    8.4495 LP  0  0  0  0  0  0  0  0  0  0  0  0  # atno 4314 bound_to 3832
    3.1262  -20.6128    8.4994 LP  0  0  0  0  0  0  0  0  0  0  0  0  # atno 4315 bound_to 3832
   -4.2510  -23.3352   10.4392 LP  0  0  0  0  0  0  0  0  0  0  0  0  # atno 4318 bound_to 3762
   -5.5085  -22.2943   10.4823 LP  0  0  0  0  0  0  0  0  0  0  0  0  # atno 4319 bound_to 3762
   -5.0498   -5.4525    9.2930 LP  0  0  0  0  0  0  0  0  0  0  0  0  # atno 4320 bound_to 2467
   -5.0324   -4.8972    7.7575 LP  0  0  0  0  0  0  0  0  0  0  0  0  # atno 4321 bound_to 2467

> <Gold.Score>
     Score     S(PLP)   S(hbond)     S(cho)   S(metal)  DE(clash)   DE(tors)     intcor
     42.11     -38.27       1.32       0.00       0.00       0.00       0.47       0.81

> <Gold.PLP.Fitness>
42.1066

> <Gold.PLP.PLP>
-38.2694

> <Gold.PLP.part.hbond>
-2.0000

> <Gold.PLP.part.metal>
0.0000

> <Gold.PLP.part.buried>
-3.2120

> <Gold.PLP.part.nonpolar>
-33.5431

> <Gold.PLP.part.repulsive>
0.8390

> <Gold.PLP.ligand.clash>
0.0000

> <Gold.PLP.ligand.torsion>
0.4708

> <Gold.PLP.Chemscore.Hbond>
1.3243

> <Gold.PLP.Chemscore.CHOScore>
0.0000

> <Gold.PLP.Chemscore.Metal>
0.0000

> <Gold.Chemscore.Hbonds>
donor molecule, donor type, donor heavy atom, donor atom, acceptor molecule, acceptor atom, score
      P1  H  3712  3721       L1    12  0.32
      P1  H  3832  3841       L1    20  1.00

> <Gold.PLP.Chemscore.Internal.Correction>
0.8058

