#       Name:                EN300-1719111_i001
#       Creating user name   fsindt
#       Creation time:       Thu Mar  2 00:30:20 2023


#       File generated by GOLD software.
#

@<TRIPOS>MOLECULE
EN300-1719111_i001|acide_1|mol2|10811|dock11
    40    42     1
SMALL
USER_CHARGES


@<TRIPOS>ATOM
      1 C1          -0.2657 -10.8911  10.3701 C.3            1 <1>                0.0000
      2 C2          -0.1941 -12.0577   9.3827 C.3            1 <1>                0.0000
      3 C3          -1.5958 -12.3622   8.8505 C.3            1 <1>                0.0000
      4 C4           0.7239 -11.6839   8.2173 C.3            1 <1>                0.0000
      5 O5           0.3329 -13.2308  10.0570 O.3            1 <1>                0.0000
      6 C6          -0.3755 -13.7072  11.0980 C.2            1 <1>                0.0000
      7 O7          -1.4026 -13.1540  11.4380 O.2            1 <1>                0.0000
      8 N8           0.0545 -14.7979  11.7629 N.am           1 <1>                0.0000
      9 C9          -0.4227 -15.5932  12.9099 C.3            1 <1>                0.0000
     10 C10          0.3447 -16.7599  12.3301 C.3            1 <1>                0.0000
     11 C11          1.2027 -15.7174  11.6551 C.3            1 <1>                0.0000
     12 O12         -0.3540 -17.7019  11.5095 O.3            1 <1>                0.0000
     13 C13          0.0316 -18.9750  12.1250 C.3            1 <1>                0.0000
     14 C14         -0.5552 -20.2534  11.5233 C.3            1 <1>                0.0000
     15 C15         -0.0992 -18.7111  13.6463 C.3            1 <1>                0.0000
     16 C16          1.0487 -17.7070  13.3367 C.3            1 <1>                0.0000
     17 C17          1.5496 -18.9311  12.4689 C.3            1 <1>                0.0000
     18 C18          1.8961 -17.1109  14.4311 C.2            1 <1>                0.0000
     19 O19          1.9962 -15.9001  14.5335 O.co2          1 <1>                0.0000
     20 O20          2.4816 -17.8396  15.2139 O.co2          1 <1>               -1.0000
     21 H21         -0.9197 -11.1574  11.2004 H              1 <1>                0.0000
     22 H22          0.7330 -10.6742  10.7493 H              1 <1>                0.0000
     23 H23         -0.6614 -10.0105   9.8639 H              1 <1>                0.0000
     24 H24         -1.9914 -11.4816   8.3443 H              1 <1>                0.0000
     25 H25         -1.5448 -13.1932   8.1471 H              1 <1>                0.0000
     26 H26         -2.2498 -12.6285   9.6807 H              1 <1>                0.0000
     27 H27          1.7226 -11.4670   8.5964 H              1 <1>                0.0000
     28 H28          0.7750 -12.5149   7.5139 H              1 <1>                0.0000
     29 H29          0.3283 -10.8033   7.7111 H              1 <1>                0.0000
     30 H30         -0.0354 -15.2504  13.8693 H              1 <1>                0.0000
     31 H31         -1.5025 -15.7425  12.9177 H              1 <1>                0.0000
     32 H32          1.4677 -15.9693  10.6282 H              1 <1>                0.0000
     33 H33          2.0615 -15.4075  12.2505 H              1 <1>                0.0000
     34 H34         -0.3224 -20.2943  10.4592 H              1 <1>                0.0000
     35 H35         -0.1246 -21.1211  12.0230 H              1 <1>                0.0000
     36 H36         -1.6368 -20.2556  11.6590 H              1 <1>                0.0000
     37 H37         -1.0385 -18.2462  13.9459 H              1 <1>                0.0000
     38 H38          0.1920 -19.5504  14.2779 H              1 <1>                0.0000
     39 H39          1.9077 -19.7819  13.0485 H              1 <1>                0.0000
     40 H40          2.2035 -18.6620  11.6395 H              1 <1>                0.0000
@<TRIPOS>BOND
    1    1    2 1     
    2    1   21 1     
    3    1   22 1     
    4    1   23 1     
    5    2    3 1     
    6    2    4 1     
    7    2    5 1     
    8    3   24 1     
    9    3   25 1     
   10    3   26 1     
   11    4   27 1     
   12    4   28 1     
   13    4   29 1     
   14    5    6 1     
   15    6    7 2     
   16    6    8 am    
   17    8    9 1     
   18    8   11 1     
   19    9   10 1     
   20    9   30 1     
   21    9   31 1     
   22   10   11 1     
   23   10   12 1     
   24   10   16 1     
   25   11   32 1     
   26   11   33 1     
   27   12   13 1     
   28   13   14 1     
   29   13   15 1     
   30   13   17 1     
   31   14   34 1     
   32   14   35 1     
   33   14   36 1     
   34   15   16 1     
   35   15   37 1     
   36   15   38 1     
   37   16   17 1     
   38   16   18 1     
   39   17   39 1     
   40   17   40 1     
   41   18   19 ar    
   42   18   20 ar    
@<TRIPOS>SUBSTRUCTURE
      1 ****           1
@<TRIPOS>COMMENT
> <Gold.Version>
2022.2.0

> <Gold.Id.Protein>
3pbl|protein|mol2

> <Gold.Protein.RotatedTorsions>
[ 1303 1298 1297 1294 ] final    5.42 input  179.99 | X-H torsion
[ 2461 2456 2455 2452 ] final  -24.86 input   30.03 | X-H torsion
[ 2515 2510 2509 2506 ] final  -47.65 input  -89.99 | X-H torsion
[ 3721 3712 3711 3710 ] final  124.55 input -179.91 | X-H torsion
[ 3841 3832 3831 3830 ] final  119.31 input -179.91 | X-H torsion
[ 3767 3762 3761 3758 ] final   87.99 input  -89.99 | X-H torsion
[ 2472 2467 2466 2463 ] final  106.87 input  -89.97 | X-H torsion

> <Gold.Protein.ActiveResidues>
 VAL82   VAL86   LEU89   PHE106  VAL107  ASP110  VAL111  MET112  CYS114  THR115 
 CYS181  SER182  ILE183  PHE188  VAL189  ILE190  SER192  SER193  SER196  TRP342 
 PHE345  PHE346  HIS349  VAL350  TYR365  THR369  GLY372  TYR373 

> <Gold.Protein.RotatedAtoms>
    3.4172   -9.9409    4.0955 H   0  0  0  0  0  0  0  0  0  0  0  0  # atno 1303 bound_to 1298
    0.6848   -8.1734    7.0913 H   0  0  0  0  0  0  0  0  0  0  0  0  # atno 2461 bound_to 2456
   -5.3032   -5.0025    7.9648 H   0  0  0  0  0  0  0  0  0  0  0  0  # atno 2472 bound_to 2467
    2.7927   -8.3016    4.3549 H   0  0  0  0  0  0  0  0  0  0  0  0  # atno 2515 bound_to 2510
   -3.0418  -17.1738   13.0462 H   0  0  0  0  0  0  0  0  0  0  0  0  # atno 3721 bound_to 3712
   -4.2147  -23.3322   10.4767 H   0  0  0  0  0  0  0  0  0  0  0  0  # atno 3767 bound_to 3762
    3.0778  -20.7312    8.9470 H   0  0  0  0  0  0  0  0  0  0  0  0  # atno 3841 bound_to 3832
    4.1589   -8.4869    4.0460 LP  0  0  0  0  0  0  0  0  0  0  0  0  # atno 4297 bound_to 1298
    4.7864   -9.6933    4.9502 LP  0  0  0  0  0  0  0  0  0  0  0  0  # atno 4298 bound_to 1298
    0.9000   -9.2806    8.2725 LP  0  0  0  0  0  0  0  0  0  0  0  0  # atno 4299 bound_to 2456
    2.1528   -8.3540    7.7841 LP  0  0  0  0  0  0  0  0  0  0  0  0  # atno 4300 bound_to 2456
    2.4092   -9.1492    5.6966 LP  0  0  0  0  0  0  0  0  0  0  0  0  # atno 4301 bound_to 2510
    2.0946   -7.5484    5.6242 LP  0  0  0  0  0  0  0  0  0  0  0  0  # atno 4302 bound_to 2510
   -2.6194  -18.1511   14.2480 LP  0  0  0  0  0  0  0  0  0  0  0  0  # atno 4306 bound_to 3712
   -3.3964  -16.7477   14.5530 LP  0  0  0  0  0  0  0  0  0  0  0  0  # atno 4307 bound_to 3712
    1.5634  -20.6100    9.4645 LP  0  0  0  0  0  0  0  0  0  0  0  0  # atno 4314 bound_to 3832
    2.1105  -19.6476    8.2640 LP  0  0  0  0  0  0  0  0  0  0  0  0  # atno 4315 bound_to 3832
   -5.5035  -22.3298   10.4440 LP  0  0  0  0  0  0  0  0  0  0  0  0  # atno 4318 bound_to 3762
   -4.4090  -22.2133   11.6503 LP  0  0  0  0  0  0  0  0  0  0  0  0  # atno 4319 bound_to 3762
   -3.6981   -4.9302    8.2563 LP  0  0  0  0  0  0  0  0  0  0  0  0  # atno 4320 bound_to 2467
   -4.7158   -5.4608    9.4179 LP  0  0  0  0  0  0  0  0  0  0  0  0  # atno 4321 bound_to 2467

> <Gold.Score>
     Score     S(PLP)   S(hbond)     S(cho)   S(metal)  DE(clash)   DE(tors)     intcor
     41.24     -40.21       0.69       0.00       0.00       1.40       0.22       0.82

> <Gold.PLP.Fitness>
41.2415

> <Gold.PLP.PLP>
-40.2078

> <Gold.PLP.part.hbond>
-1.0000

> <Gold.PLP.part.metal>
0.0000

> <Gold.PLP.part.buried>
-4.4644

> <Gold.PLP.part.nonpolar>
-37.6520

> <Gold.PLP.part.repulsive>
0.6616

> <Gold.PLP.ligand.clash>
1.3967

> <Gold.PLP.ligand.torsion>
0.2248

> <Gold.PLP.Chemscore.Hbond>
0.6864

> <Gold.PLP.Chemscore.CHOScore>
0.0000

> <Gold.PLP.Chemscore.Metal>
0.0000

> <Gold.Chemscore.Hbonds>
donor molecule, donor type, donor heavy atom, donor atom, acceptor molecule, acceptor atom, score
      P1  H  2305  2313       L1    19  0.69

> <Gold.PLP.Chemscore.Internal.Correction>
0.8209

