#       Name:                EN300-1719111_i001
#       Creating user name   fsindt
#       Creation time:       Thu Mar  2 00:30:26 2023


#       File generated by GOLD software.
#

@<TRIPOS>MOLECULE
EN300-1719111_i001|acide_1|mol2|10811|dock15
    40    42     1
SMALL
USER_CHARGES


@<TRIPOS>ATOM
      1 C1           0.8567 -16.3043  12.1756 C.3            1 <1>                0.0000
      2 C2           1.5946 -17.2472  13.1283 C.3            1 <1>                0.0000
      3 C3           3.1024 -17.1276  12.8978 C.3            1 <1>                0.0000
      4 C4           1.2681 -16.8692  14.5744 C.3            1 <1>                0.0000
      5 O5           1.1737 -18.6143  12.8785 O.3            1 <1>                0.0000
      6 C6          -0.1116 -18.9159  13.1421 C.2            1 <1>                0.0000
      7 O7          -0.9114 -18.0278  13.3619 O.2            1 <1>                0.0000
      8 N8          -0.5114 -20.2029  13.1622 N.am           1 <1>                0.0000
      9 C9           0.1328 -21.5134  12.9542 C.3            1 <1>                0.0000
     10 C10         -0.9562 -22.1072  13.8187 C.3            1 <1>                0.0000
     11 C11         -1.7813 -20.9118  13.4079 C.3            1 <1>                0.0000
     12 O12         -0.6947 -22.3076  15.2117 O.3            1 <1>                0.0000
     13 C13         -1.0979 -23.7053  15.3913 C.3            1 <1>                0.0000
     14 C14         -0.9362 -24.3102  16.7873 C.3            1 <1>                0.0000
     15 C15         -0.4917 -24.4314  14.1639 C.3            1 <1>                0.0000
     16 C16         -1.4913 -23.5052  13.4125 C.3            1 <1>                0.0000
     17 C17         -2.4219 -23.9539  14.6104 C.3            1 <1>                0.0000
     18 C18         -1.8731 -23.7524  11.9757 C.2            1 <1>                0.0000
     19 O19         -1.1277 -23.3999  11.0776 O.co2          1 <1>                0.0000
     20 O20         -2.9274 -24.3048  11.7117 O.co2          1 <1>               -1.0000
     21 H21          1.0893 -16.5736  11.1453 H              1 <1>                0.0000
     22 H22         -0.2175 -16.3895  12.3398 H              1 <1>                0.0000
     23 H23          1.1727 -15.2781  12.3631 H              1 <1>                0.0000
     24 H24          3.4183 -16.1013  13.0853 H              1 <1>                0.0000
     25 H25          3.6280 -17.7993  13.5765 H              1 <1>                0.0000
     26 H26          3.3350 -17.3969  11.8676 H              1 <1>                0.0000
     27 H27          0.1939 -16.9544  14.7386 H              1 <1>                0.0000
     28 H28          1.7937 -17.5408  15.2530 H              1 <1>                0.0000
     29 H29          1.5840 -15.8429  14.7619 H              1 <1>                0.0000
     30 H30          0.1027 -21.8547  11.9195 H              1 <1>                0.0000
     31 H31          1.1272 -21.5852  13.3951 H              1 <1>                0.0000
     32 H32         -2.3696 -20.4878  14.2217 H              1 <1>                0.0000
     33 H33         -2.3662 -21.0761  12.5030 H              1 <1>                0.0000
     34 H34         -1.4690 -23.6961  17.5133 H              1 <1>                0.0000
     35 H35         -1.3461 -25.3202  16.7953 H              1 <1>                0.0000
     36 H36          0.1217 -24.3454  17.0476 H              1 <1>                0.0000
     37 H37          0.5590 -24.2076  13.9791 H              1 <1>                0.0000
     38 H38         -0.7273 -25.4940  14.1047 H              1 <1>                0.0000
     39 H39         -2.7376 -24.9965  14.5739 H              1 <1>                0.0000
     40 H40         -3.2310 -23.2608  14.8406 H              1 <1>                0.0000
@<TRIPOS>BOND
    1    1    2 1     
    2    1   21 1     
    3    1   22 1     
    4    1   23 1     
    5    2    3 1     
    6    2    4 1     
    7    2    5 1     
    8    3   24 1     
    9    3   25 1     
   10    3   26 1     
   11    4   27 1     
   12    4   28 1     
   13    4   29 1     
   14    5    6 1     
   15    6    7 2     
   16    6    8 am    
   17    8    9 1     
   18    8   11 1     
   19    9   10 1     
   20    9   30 1     
   21    9   31 1     
   22   10   11 1     
   23   10   12 1     
   24   10   16 1     
   25   11   32 1     
   26   11   33 1     
   27   12   13 1     
   28   13   14 1     
   29   13   15 1     
   30   13   17 1     
   31   14   34 1     
   32   14   35 1     
   33   14   36 1     
   34   15   16 1     
   35   15   37 1     
   36   15   38 1     
   37   16   17 1     
   38   16   18 1     
   39   17   39 1     
   40   17   40 1     
   41   18   19 ar    
   42   18   20 ar    
@<TRIPOS>SUBSTRUCTURE
      1 ****           1
@<TRIPOS>COMMENT
> <Gold.Version>
2022.2.0

> <Gold.Id.Protein>
3pbl|protein|mol2

> <Gold.Protein.RotatedTorsions>
[ 1303 1298 1297 1294 ] final   36.86 input  179.99 | X-H torsion
[ 2461 2456 2455 2452 ] final  115.94 input   30.03 | X-H torsion
[ 2515 2510 2509 2506 ] final  107.28 input  -89.99 | X-H torsion
[ 3721 3712 3711 3710 ] final   38.84 input -179.91 | X-H torsion
[ 3841 3832 3831 3830 ] final  -23.02 input -179.91 | X-H torsion
[ 3767 3762 3761 3758 ] final  151.14 input  -89.99 | X-H torsion
[ 2472 2467 2466 2463 ] final  -52.83 input  -89.97 | X-H torsion

> <Gold.Protein.ActiveResidues>
 VAL82   VAL86   LEU89   PHE106  VAL107  ASP110  VAL111  MET112  CYS114  THR115 
 CYS181  SER182  ILE183  PHE188  VAL189  ILE190  SER192  SER193  SER196  TRP342 
 PHE345  PHE346  HIS349  VAL350  TYR365  THR369  GLY372  TYR373 

> <Gold.Protein.RotatedAtoms>
    3.7094  -10.2208    4.4071 H   0  0  0  0  0  0  0  0  0  0  0  0  # atno 1303 bound_to 1298
    2.1380   -8.5972    8.0220 H   0  0  0  0  0  0  0  0  0  0  0  0  # atno 2461 bound_to 2456
   -3.6829   -5.1465    8.8589 H   0  0  0  0  0  0  0  0  0  0  0  0  # atno 2472 bound_to 2467
    2.0290   -7.9700    5.9957 H   0  0  0  0  0  0  0  0  0  0  0  0  # atno 2515 bound_to 2510
   -2.5036  -18.0164   13.6697 H   0  0  0  0  0  0  0  0  0  0  0  0  # atno 3721 bound_to 3712
   -3.9218  -22.8842   11.3066 H   0  0  0  0  0  0  0  0  0  0  0  0  # atno 3767 bound_to 3762
    1.5918  -20.2139    9.4040 H   0  0  0  0  0  0  0  0  0  0  0  0  # atno 3841 bound_to 3832
    3.7411   -8.6917    3.8351 LP  0  0  0  0  0  0  0  0  0  0  0  0  # atno 4297 bound_to 1298
    4.9119   -9.2085    4.8493 LP  0  0  0  0  0  0  0  0  0  0  0  0  # atno 4298 bound_to 1298
    0.9785   -8.0115    7.0321 LP  0  0  0  0  0  0  0  0  0  0  0  0  # atno 4299 bound_to 2456
    0.6216   -9.1994    8.0942 LP  0  0  0  0  0  0  0  0  0  0  0  0  # atno 4300 bound_to 2456
    2.6238   -7.7781    4.4873 LP  0  0  0  0  0  0  0  0  0  0  0  0  # atno 4301 bound_to 2510
    2.6441   -9.2512    5.1919 LP  0  0  0  0  0  0  0  0  0  0  0  0  # atno 4302 bound_to 2510
   -3.1603  -17.1173   14.8266 LP  0  0  0  0  0  0  0  0  0  0  0  0  # atno 4306 bound_to 3712
   -3.4769  -16.8088   13.2546 LP  0  0  0  0  0  0  0  0  0  0  0  0  # atno 4307 bound_to 3712
    2.4906  -19.7799    8.1471 LP  0  0  0  0  0  0  0  0  0  0  0  0  # atno 4314 bound_to 3832
    2.9000  -21.0752    9.0534 LP  0  0  0  0  0  0  0  0  0  0  0  0  # atno 4315 bound_to 3832
   -4.9680  -23.0683   10.0663 LP  0  0  0  0  0  0  0  0  0  0  0  0  # atno 4318 bound_to 3762
   -5.2372  -21.9226   11.1983 LP  0  0  0  0  0  0  0  0  0  0  0  0  # atno 4319 bound_to 3762
   -5.2746   -5.4111    9.1095 LP  0  0  0  0  0  0  0  0  0  0  0  0  # atno 4320 bound_to 2467
   -4.7592   -4.8359    7.6708 LP  0  0  0  0  0  0  0  0  0  0  0  0  # atno 4321 bound_to 2467

> <Gold.Score>
     Score     S(PLP)   S(hbond)     S(cho)   S(metal)  DE(clash)   DE(tors)     intcor
     49.37     -44.11       2.00       0.00       0.00       0.39       0.59       0.82

> <Gold.PLP.Fitness>
49.3732

> <Gold.PLP.PLP>
-44.1148

> <Gold.PLP.part.hbond>
-3.3561

> <Gold.PLP.part.metal>
0.0000

> <Gold.PLP.part.buried>
-4.5543

> <Gold.PLP.part.nonpolar>
-37.3226

> <Gold.PLP.part.repulsive>
0.2430

> <Gold.PLP.ligand.clash>
0.3872

> <Gold.PLP.ligand.torsion>
0.5859

> <Gold.PLP.Chemscore.Hbond>
2.0000

> <Gold.PLP.Chemscore.CHOScore>
0.0000

> <Gold.PLP.Chemscore.Metal>
0.0000

> <Gold.Chemscore.Hbonds>
donor molecule, donor type, donor heavy atom, donor atom, acceptor molecule, acceptor atom, score
      P1  H  3712  3721       L1     7  1.00
      P1  H  3762  3767       L1    20  1.00

> <Gold.PLP.Chemscore.Internal.Correction>
0.8174

