#       Name:                EN300-1719111_i001
#       Creating user name   fsindt
#       Creation time:       Thu Mar  2 00:30:17 2023


#       File generated by GOLD software.
#

@<TRIPOS>MOLECULE
EN300-1719111_i001|acide_1|mol2|10811|dock8
    40    42     1
SMALL
USER_CHARGES


@<TRIPOS>ATOM
      1 C1           0.0097 -18.3716  14.4890 C.3            1 <1>                0.0000
      2 C2           0.0607 -18.6670  12.9885 C.3            1 <1>                0.0000
      3 C3           1.4747 -19.1063  12.6031 C.3            1 <1>                0.0000
      4 C4          -0.9293 -19.7846  12.6548 C.3            1 <1>                0.0000
      5 O5          -0.2930 -17.4696  12.2472 O.3            1 <1>                0.0000
      6 C6           0.5722 -16.4395  12.3010 C.2            1 <1>                0.0000
      7 O7           1.4127 -16.3971  13.1775 O.2            1 <1>                0.0000
      8 N8           0.5061 -15.4553  11.3825 N.am           1 <1>                0.0000
      9 C9          -0.3381 -15.1583  10.2100 C.3            1 <1>                0.0000
     10 C10          0.0011 -13.7004  10.4231 C.3            1 <1>                0.0000
     11 C11          1.2425 -14.2049  11.1181 C.3            1 <1>                0.0000
     12 O12         -0.9108 -12.8844  11.1657 O.3            1 <1>                0.0000
     13 C13         -1.0800 -11.7371  10.2694 C.3            1 <1>                0.0000
     14 C14         -2.0328 -10.6277  10.7190 C.3            1 <1>                0.0000
     15 C15         -1.2521 -12.3774   8.8688 C.3            1 <1>                0.0000
     16 C16          0.2080 -12.8347   9.1528 C.3            1 <1>                0.0000
     17 C17          0.3075 -11.3467   9.6803 C.3            1 <1>                0.0000
     18 C18          1.1043 -13.3491   8.0559 C.2            1 <1>                0.0000
     19 O19          1.2780 -12.6845   7.0486 O.co2          1 <1>                0.0000
     20 O20          1.6556 -14.4299   8.1759 O.co2          1 <1>               -1.0000
     21 H21          0.7150 -17.5754  14.7267 H              1 <1>                0.0000
     22 H22         -0.9977 -18.0586  14.7635 H              1 <1>                0.0000
     23 H23          0.2753 -19.2705  15.0454 H              1 <1>                0.0000
     24 H24          1.7403 -20.0051  13.1596 H              1 <1>                0.0000
     25 H25          1.5111 -19.3167  11.5343 H              1 <1>                0.0000
     26 H26          2.1801 -18.3101  12.8409 H              1 <1>                0.0000
     27 H27         -1.9367 -19.4716  12.9294 H              1 <1>                0.0000
     28 H28         -0.8930 -19.9951  11.5860 H              1 <1>                0.0000
     29 H29         -0.6638 -20.6835  13.2113 H              1 <1>                0.0000
     30 H30          0.0527 -15.5650   9.2773 H              1 <1>                0.0000
     31 H31         -1.3928 -15.3873  10.3631 H              1 <1>                0.0000
     32 H32          1.4952 -13.6460  12.0191 H              1 <1>                0.0000
     33 H33          2.0929 -14.3378  10.4494 H              1 <1>                0.0000
     34 H34         -1.7290 -10.2634  11.7004 H              1 <1>                0.0000
     35 H35         -2.0006  -9.8080  10.0012 H              1 <1>                0.0000
     36 H36         -3.0477 -11.0213  10.7757 H              1 <1>                0.0000
     37 H37         -1.9801 -13.1875   8.8279 H              1 <1>                0.0000
     38 H38         -1.3513 -11.6613   8.0529 H              1 <1>                0.0000
     39 H39          0.2711 -10.5855   8.9010 H              1 <1>                0.0000
     40 H40          1.0918 -11.1784  10.4183 H              1 <1>                0.0000
@<TRIPOS>BOND
    1    1    2 1     
    2    1   21 1     
    3    1   22 1     
    4    1   23 1     
    5    2    3 1     
    6    2    4 1     
    7    2    5 1     
    8    3   24 1     
    9    3   25 1     
   10    3   26 1     
   11    4   27 1     
   12    4   28 1     
   13    4   29 1     
   14    5    6 1     
   15    6    7 2     
   16    6    8 am    
   17    8    9 1     
   18    8   11 1     
   19    9   10 1     
   20    9   30 1     
   21    9   31 1     
   22   10   11 1     
   23   10   12 1     
   24   10   16 1     
   25   11   32 1     
   26   11   33 1     
   27   12   13 1     
   28   13   14 1     
   29   13   15 1     
   30   13   17 1     
   31   14   34 1     
   32   14   35 1     
   33   14   36 1     
   34   15   16 1     
   35   15   37 1     
   36   15   38 1     
   37   16   17 1     
   38   16   18 1     
   39   17   39 1     
   40   17   40 1     
   41   18   19 ar    
   42   18   20 ar    
@<TRIPOS>SUBSTRUCTURE
      1 ****           1
@<TRIPOS>COMMENT
> <Gold.Version>
2022.2.0

> <Gold.Id.Protein>
3pbl|protein|mol2

> <Gold.Protein.RotatedTorsions>
[ 1303 1298 1297 1294 ] final -157.29 input  179.99 | X-H torsion
[ 2461 2456 2455 2452 ] final   38.87 input   30.03 | X-H torsion
[ 2515 2510 2509 2506 ] final  -30.56 input  -89.99 | X-H torsion
[ 3721 3712 3711 3710 ] final -176.38 input -179.91 | X-H torsion
[ 3841 3832 3831 3830 ] final   -2.22 input -179.91 | X-H torsion
[ 3767 3762 3761 3758 ] final  -92.92 input  -89.99 | X-H torsion
[ 2472 2467 2466 2463 ] final  171.15 input  -89.97 | X-H torsion

> <Gold.Protein.ActiveResidues>
 VAL82   VAL86   LEU89   PHE106  VAL107  ASP110  VAL111  MET112  CYS114  THR115 
 CYS181  SER182  ILE183  PHE188  VAL189  ILE190  SER192  SER193  SER196  TRP342 
 PHE345  PHE346  HIS349  VAL350  TYR365  THR369  GLY372  TYR373 

> <Gold.Protein.RotatedAtoms>
    4.6844   -8.6252    4.4655 H   0  0  0  0  0  0  0  0  0  0  0  0  # atno 1303 bound_to 1298
    1.6464   -7.9328    7.1867 H   0  0  0  0  0  0  0  0  0  0  0  0  # atno 2461 bound_to 2456
   -5.4188   -5.3516    8.8981 H   0  0  0  0  0  0  0  0  0  0  0  0  # atno 2472 bound_to 2467
    2.7235   -8.0315    4.3810 H   0  0  0  0  0  0  0  0  0  0  0  0  # atno 2515 bound_to 2510
   -3.3286  -16.5879   13.5973 H   0  0  0  0  0  0  0  0  0  0  0  0  # atno 3721 bound_to 3712
   -5.1929  -21.9162   11.2479 H   0  0  0  0  0  0  0  0  0  0  0  0  # atno 3767 bound_to 3762
    1.7180  -20.4613    9.5473 H   0  0  0  0  0  0  0  0  0  0  0  0  # atno 3841 bound_to 3832
    4.3194  -10.1782    4.8138 LP  0  0  0  0  0  0  0  0  0  0  0  0  # atno 4297 bound_to 1298
    3.3581   -9.3183    3.8122 LP  0  0  0  0  0  0  0  0  0  0  0  0  # atno 4298 bound_to 1298
    0.3329   -8.8093    7.6037 LP  0  0  0  0  0  0  0  0  0  0  0  0  # atno 4299 bound_to 2456
    1.7586   -9.0658    8.3576 LP  0  0  0  0  0  0  0  0  0  0  0  0  # atno 4300 bound_to 2456
    2.5286   -9.2409    5.4604 LP  0  0  0  0  0  0  0  0  0  0  0  0  # atno 4301 bound_to 2510
    2.0445   -7.7268    5.8342 LP  0  0  0  0  0  0  0  0  0  0  0  0  # atno 4302 bound_to 2510
   -2.7539  -18.0608   13.3180 LP  0  0  0  0  0  0  0  0  0  0  0  0  # atno 4306 bound_to 3712
   -2.9309  -17.5145   14.8467 LP  0  0  0  0  0  0  0  0  0  0  0  0  # atno 4307 bound_to 3712
    2.1781  -19.6610    8.2342 LP  0  0  0  0  0  0  0  0  0  0  0  0  # atno 4314 bound_to 3832
    3.0667  -20.9084    8.8008 LP  0  0  0  0  0  0  0  0  0  0  0  0  # atno 4315 bound_to 3832
   -3.9133  -22.9308   11.2595 LP  0  0  0  0  0  0  0  0  0  0  0  0  # atno 4318 bound_to 3762
   -5.0213  -23.0277   10.0638 LP  0  0  0  0  0  0  0  0  0  0  0  0  # atno 4319 bound_to 3762
   -4.4985   -4.8051    7.6649 LP  0  0  0  0  0  0  0  0  0  0  0  0  # atno 4320 bound_to 2467
   -3.7997   -5.2369    9.0763 LP  0  0  0  0  0  0  0  0  0  0  0  0  # atno 4321 bound_to 2467

> <Gold.Score>
     Score     S(PLP)   S(hbond)     S(cho)   S(metal)  DE(clash)   DE(tors)     intcor
     39.62     -39.79       0.00       0.00       0.00       0.00       0.49       0.82

> <Gold.PLP.Fitness>
39.6211

> <Gold.PLP.PLP>
-39.7889

> <Gold.PLP.part.hbond>
0.0000

> <Gold.PLP.part.metal>
0.0000

> <Gold.PLP.part.buried>
-7.6847

> <Gold.PLP.part.nonpolar>
-32.6017

> <Gold.PLP.part.repulsive>
0.4271

> <Gold.PLP.ligand.clash>
0.0000

> <Gold.PLP.ligand.torsion>
0.4943

> <Gold.PLP.Chemscore.Hbond>
0.0000

> <Gold.PLP.Chemscore.CHOScore>
0.0000

> <Gold.PLP.Chemscore.Metal>
0.0000

> <Gold.PLP.Chemscore.Internal.Correction>
0.8209

