#       Name:                EN300-1719111_i001
#       Creating user name   fsindt
#       Creation time:       Thu Mar  2 00:30:14 2023


#       File generated by GOLD software.
#

@<TRIPOS>MOLECULE
EN300-1719111_i001|acide_1|mol2|10811|dock5
    40    42     1
SMALL
USER_CHARGES


@<TRIPOS>ATOM
      1 C1           1.6969 -18.9277  12.8486 C.3            1 <1>                0.0000
      2 C2           1.0981 -17.9844  13.8940 C.3            1 <1>                0.0000
      3 C3          -0.1066 -18.6558  14.5562 C.3            1 <1>                0.0000
      4 C4           2.1520 -17.6655  14.9562 C.3            1 <1>                0.0000
      5 O5           0.6731 -16.7548  13.2493 O.3            1 <1>                0.0000
      6 C6           1.5838 -16.1158  12.4910 C.2            1 <1>                0.0000
      7 O7           2.7619 -16.3961  12.5910 O.2            1 <1>                0.0000
      8 N8           1.1887 -15.1654  11.6208 N.am           1 <1>                0.0000
      9 C9           1.8562 -14.2750  10.6527 C.3            1 <1>                0.0000
     10 C10          0.5468 -14.2300   9.8980 C.3            1 <1>                0.0000
     11 C11         -0.0994 -14.5693  11.2193 C.3            1 <1>                0.0000
     12 O12          0.3572 -15.1255   8.7975 O.3            1 <1>                0.0000
     13 C13         -0.0920 -14.2104   7.7443 C.3            1 <1>                0.0000
     14 C14         -0.3803 -14.8107   6.3668 C.3            1 <1>                0.0000
     15 C15          0.8631 -12.9966   7.8693 C.3            1 <1>                0.0000
     16 C16          0.1560 -12.8758   9.2502 C.3            1 <1>                0.0000
     17 C17         -1.1063 -13.1979   8.3529 C.3            1 <1>                0.0000
     18 C18          0.2419 -11.6186  10.0767 C.2            1 <1>                0.0000
     19 O19         -0.5387 -11.4388  10.9958 O.co2          1 <1>                0.0000
     20 O20          1.0919 -10.7813   9.8259 O.co2          1 <1>               -1.0000
     21 H21          0.9461 -19.1550  12.0918 H              1 <1>                0.0000
     22 H22          2.5552 -18.4494  12.3768 H              1 <1>                0.0000
     23 H23          2.0159 -19.8508  13.3326 H              1 <1>                0.0000
     24 H24          0.2125 -19.5790  15.0402 H              1 <1>                0.0000
     25 H25         -0.5332 -17.9839  15.3009 H              1 <1>                0.0000
     26 H26         -0.8574 -18.8831  13.7994 H              1 <1>                0.0000
     27 H27          3.0103 -17.1871  14.4844 H              1 <1>                0.0000
     28 H28          1.7255 -16.9935  15.7009 H              1 <1>                0.0000
     29 H29          2.4711 -18.5886  15.4402 H              1 <1>                0.0000
     30 H30          2.1493 -13.3137  11.0747 H              1 <1>                0.0000
     31 H31          2.6617 -14.7581  10.0996 H              1 <1>                0.0000
     32 H32         -0.9100 -15.2930  11.1349 H              1 <1>                0.0000
     33 H33         -0.3725 -13.6940  11.8085 H              1 <1>                0.0000
     34 H34         -1.1093 -15.6149   6.4663 H              1 <1>                0.0000
     35 H35         -0.7793 -14.0379   5.7099 H              1 <1>                0.0000
     36 H36          0.5425 -15.2071   5.9429 H              1 <1>                0.0000
     37 H37          1.9203 -13.2563   7.9234 H              1 <1>                0.0000
     38 H38          0.6502 -12.1803   7.1790 H              1 <1>                0.0000
     39 H39         -1.4022 -12.3929   7.6802 H              1 <1>                0.0000
     40 H40         -1.9419 -13.6472   8.8896 H              1 <1>                0.0000
@<TRIPOS>BOND
    1    1    2 1     
    2    1   21 1     
    3    1   22 1     
    4    1   23 1     
    5    2    3 1     
    6    2    4 1     
    7    2    5 1     
    8    3   24 1     
    9    3   25 1     
   10    3   26 1     
   11    4   27 1     
   12    4   28 1     
   13    4   29 1     
   14    5    6 1     
   15    6    7 2     
   16    6    8 am    
   17    8    9 1     
   18    8   11 1     
   19    9   10 1     
   20    9   30 1     
   21    9   31 1     
   22   10   11 1     
   23   10   12 1     
   24   10   16 1     
   25   11   32 1     
   26   11   33 1     
   27   12   13 1     
   28   13   14 1     
   29   13   15 1     
   30   13   17 1     
   31   14   34 1     
   32   14   35 1     
   33   14   36 1     
   34   15   16 1     
   35   15   37 1     
   36   15   38 1     
   37   16   17 1     
   38   16   18 1     
   39   17   39 1     
   40   17   40 1     
   41   18   19 ar    
   42   18   20 ar    
@<TRIPOS>SUBSTRUCTURE
      1 ****           1
@<TRIPOS>COMMENT
> <Gold.Version>
2022.2.0

> <Gold.Id.Protein>
3pbl|protein|mol2

> <Gold.Protein.RotatedTorsions>
[ 1303 1298 1297 1294 ] final -139.61 input  179.99 | X-H torsion
[ 2461 2456 2455 2452 ] final -166.33 input   30.03 | X-H torsion
[ 2515 2510 2509 2506 ] final  132.22 input  -89.99 | X-H torsion
[ 3721 3712 3711 3710 ] final  -97.82 input -179.91 | X-H torsion
[ 3841 3832 3831 3830 ] final   29.96 input -179.91 | X-H torsion
[ 3767 3762 3761 3758 ] final   80.26 input  -89.99 | X-H torsion
[ 2472 2467 2466 2463 ] final  -94.33 input  -89.97 | X-H torsion

> <Gold.Protein.ActiveResidues>
 VAL82   VAL86   LEU89   PHE106  VAL107  ASP110  VAL111  MET112  CYS114  THR115 
 CYS181  SER182  ILE183  PHE188  VAL189  ILE190  SER192  SER193  SER196  TRP342 
 PHE345  PHE346  HIS349  VAL350  TYR365  THR369  GLY372  TYR373 

> <Gold.Protein.RotatedAtoms>
    4.4893   -8.5098    4.2852 H   0  0  0  0  0  0  0  0  0  0  0  0  # atno 1303 bound_to 1298
    1.2342   -9.2719    8.3805 H   0  0  0  0  0  0  0  0  0  0  0  0  # atno 2461 bound_to 2456
   -4.1034   -5.3628    9.3308 H   0  0  0  0  0  0  0  0  0  0  0  0  # atno 2472 bound_to 2467
    2.0715   -8.3623    6.0953 H   0  0  0  0  0  0  0  0  0  0  0  0  # atno 2515 bound_to 2510
   -3.0805  -16.8605   14.6304 H   0  0  0  0  0  0  0  0  0  0  0  0  # atno 3721 bound_to 3712
   -4.3042  -23.3348   10.3865 H   0  0  0  0  0  0  0  0  0  0  0  0  # atno 3767 bound_to 3762
    2.0656  -20.7838    9.6209 H   0  0  0  0  0  0  0  0  0  0  0  0  # atno 3841 bound_to 3832
    4.5426  -10.0187    4.9071 LP  0  0  0  0  0  0  0  0  0  0  0  0  # atno 4297 bound_to 1298
    3.3301   -9.5932    3.8994 LP  0  0  0  0  0  0  0  0  0  0  0  0  # atno 4298 bound_to 1298
    2.0444   -8.1373    7.5298 LP  0  0  0  0  0  0  0  0  0  0  0  0  # atno 4299 bound_to 2456
    0.4592   -8.3992    7.2381 LP  0  0  0  0  0  0  0  0  0  0  0  0  # atno 4300 bound_to 2456
    2.4561   -7.5180    4.7518 LP  0  0  0  0  0  0  0  0  0  0  0  0  # atno 4301 bound_to 2510
    2.7692   -9.1189    4.8278 LP  0  0  0  0  0  0  0  0  0  0  0  0  # atno 4302 bound_to 2510
   -3.3600  -17.0430   13.0599 LP  0  0  0  0  0  0  0  0  0  0  0  0  # atno 4306 bound_to 3712
   -2.6112  -18.2176   13.9122 LP  0  0  0  0  0  0  0  0  0  0  0  0  # atno 4307 bound_to 3712
    1.7295  -19.6674    8.5177 LP  0  0  0  0  0  0  0  0  0  0  0  0  # atno 4314 bound_to 3832
    3.1138  -20.5294    8.4324 LP  0  0  0  0  0  0  0  0  0  0  0  0  # atno 4315 bound_to 3832
   -5.5113  -22.2456   10.5388 LP  0  0  0  0  0  0  0  0  0  0  0  0  # atno 4318 bound_to 3762
   -4.3117  -22.2950   11.6456 LP  0  0  0  0  0  0  0  0  0  0  0  0  # atno 4319 bound_to 3762
   -5.5101   -5.2223    8.5136 LP  0  0  0  0  0  0  0  0  0  0  0  0  # atno 4320 bound_to 2467
   -4.1033   -4.8085    7.7949 LP  0  0  0  0  0  0  0  0  0  0  0  0  # atno 4321 bound_to 2467

> <Gold.Score>
     Score     S(PLP)   S(hbond)     S(cho)   S(metal)  DE(clash)   DE(tors)     intcor
     43.00     -40.26       1.00       0.00       0.00       0.00       0.55       0.84

> <Gold.PLP.Fitness>
43.0019

> <Gold.PLP.PLP>
-40.2596

> <Gold.PLP.part.hbond>
-1.0000

> <Gold.PLP.part.metal>
0.0000

> <Gold.PLP.part.buried>
-5.9365

> <Gold.PLP.part.nonpolar>
-35.7213

> <Gold.PLP.part.repulsive>
0.2838

> <Gold.PLP.ligand.clash>
0.0000

> <Gold.PLP.ligand.torsion>
0.5511

> <Gold.PLP.Chemscore.Hbond>
1.0000

> <Gold.PLP.Chemscore.CHOScore>
0.0000

> <Gold.PLP.Chemscore.Metal>
0.0000

> <Gold.Chemscore.Hbonds>
donor molecule, donor type, donor heavy atom, donor atom, acceptor molecule, acceptor atom, score
      P1  H  2456  2461       L1    20  1.00

> <Gold.PLP.Chemscore.Internal.Correction>
0.8446

