#       Name:                EN300-1719111_i001
#       Creating user name   fsindt
#       Creation time:       Thu Mar  2 00:30:23 2023


#       File generated by GOLD software.
#

@<TRIPOS>MOLECULE
EN300-1719111_i001|acide_1|mol2|10811|dock13
    40    42     1
SMALL
USER_CHARGES


@<TRIPOS>ATOM
      1 C1           2.3988 -17.6742  14.8725 C.3            1 <1>                0.0000
      2 C2           1.1019 -17.6566  14.0607 C.3            1 <1>                0.0000
      3 C3           0.9277 -18.9996  13.3487 C.3            1 <1>                0.0000
      4 C4          -0.0834 -17.4189  14.9984 C.3            1 <1>                0.0000
      5 O5           1.1616 -16.5910  13.0762 O.3            1 <1>                0.0000
      6 C6           0.0320 -16.3257  12.3934 C.2            1 <1>                0.0000
      7 O7          -0.8680 -17.1417  12.3674 O.2            1 <1>                0.0000
      8 N8          -0.1006 -15.1551  11.7388 N.am           1 <1>                0.0000
      9 C9           0.7334 -13.9550  11.5392 C.3            1 <1>                0.0000
     10 C10         -0.0373 -13.7181  10.2602 C.3            1 <1>                0.0000
     11 C11         -1.1401 -14.5213  10.9060 C.3            1 <1>                0.0000
     12 O12          0.5162 -14.1899   9.0273 O.3            1 <1>                0.0000
     13 C13          0.4316 -12.9923   8.1865 C.3            1 <1>                0.0000
     14 C14          0.9676 -13.0971   6.7573 C.3            1 <1>                0.0000
     15 C15          0.9238 -11.8498   9.1103 C.3            1 <1>                0.0000
     16 C16         -0.3593 -12.2448   9.8971 C.3            1 <1>                0.0000
     17 C17         -0.9426 -12.3011   8.4277 C.3            1 <1>                0.0000
     18 C18         -0.9505 -11.3448  10.9514 C.2            1 <1>                0.0000
     19 O19         -1.3096 -11.8108  12.0192 O.co2          1 <1>                0.0000
     20 O20         -1.0695 -10.1506  10.7363 O.co2          1 <1>               -1.0000
     21 H21          3.2433 -17.8435  14.2045 H              1 <1>                0.0000
     22 H22          2.5229 -16.7174  15.3797 H              1 <1>                0.0000
     23 H23          2.3540 -18.4742  15.6115 H              1 <1>                0.0000
     24 H24          0.8830 -19.7995  14.0878 H              1 <1>                0.0000
     25 H25          0.0039 -18.9870  12.7705 H              1 <1>                0.0000
     26 H26          1.7722 -19.1689  12.6808 H              1 <1>                0.0000
     27 H27          0.0406 -16.4621  15.5056 H              1 <1>                0.0000
     28 H28         -1.0073 -17.4064  14.4201 H              1 <1>                0.0000
     29 H29         -0.1282 -18.2189  15.7375 H              1 <1>                0.0000
     30 H30          0.5749 -13.1837  12.2929 H              1 <1>                0.0000
     31 H31          1.7879 -14.1790  11.3776 H              1 <1>                0.0000
     32 H32         -1.6348 -15.2111  10.2222 H              1 <1>                0.0000
     33 H33         -1.8424 -13.9158  11.4788 H              1 <1>                0.0000
     34 H34          0.4732 -13.9213   6.2433 H              1 <1>                0.0000
     35 H35          0.7695 -12.1663   6.2258 H              1 <1>                0.0000
     36 H36          2.0422 -13.2782   6.7847 H              1 <1>                0.0000
     37 H37          1.8574 -12.0601   9.6322 H              1 <1>                0.0000
     38 H38          0.8909 -10.8576   8.6599 H              1 <1>                0.0000
     39 H39         -1.0522 -11.3297   7.9455 H              1 <1>                0.0000
     40 H40         -1.8120 -12.9477   8.3091 H              1 <1>                0.0000
@<TRIPOS>BOND
    1    1    2 1     
    2    1   21 1     
    3    1   22 1     
    4    1   23 1     
    5    2    3 1     
    6    2    4 1     
    7    2    5 1     
    8    3   24 1     
    9    3   25 1     
   10    3   26 1     
   11    4   27 1     
   12    4   28 1     
   13    4   29 1     
   14    5    6 1     
   15    6    7 2     
   16    6    8 am    
   17    8    9 1     
   18    8   11 1     
   19    9   10 1     
   20    9   30 1     
   21    9   31 1     
   22   10   11 1     
   23   10   12 1     
   24   10   16 1     
   25   11   32 1     
   26   11   33 1     
   27   12   13 1     
   28   13   14 1     
   29   13   15 1     
   30   13   17 1     
   31   14   34 1     
   32   14   35 1     
   33   14   36 1     
   34   15   16 1     
   35   15   37 1     
   36   15   38 1     
   37   16   17 1     
   38   16   18 1     
   39   17   39 1     
   40   17   40 1     
   41   18   19 ar    
   42   18   20 ar    
@<TRIPOS>SUBSTRUCTURE
      1 ****           1
@<TRIPOS>COMMENT
> <Gold.Version>
2022.2.0

> <Gold.Id.Protein>
3pbl|protein|mol2

> <Gold.Protein.RotatedTorsions>
[ 1303 1298 1297 1294 ] final  155.68 input  179.99 | X-H torsion
[ 2461 2456 2455 2452 ] final -104.77 input   30.03 | X-H torsion
[ 2515 2510 2509 2506 ] final   -2.22 input  -89.99 | X-H torsion
[ 3721 3712 3711 3710 ] final   77.55 input -179.91 | X-H torsion
[ 3841 3832 3831 3830 ] final -136.64 input -179.91 | X-H torsion
[ 3767 3762 3761 3758 ] final -114.43 input  -89.99 | X-H torsion
[ 2472 2467 2466 2463 ] final  -29.28 input  -89.97 | X-H torsion

> <Gold.Protein.ActiveResidues>
 VAL82   VAL86   LEU89   PHE106  VAL107  ASP110  VAL111  MET112  CYS114  THR115 
 CYS181  SER182  ILE183  PHE188  VAL189  ILE190  SER192  SER193  SER196  TRP342 
 PHE345  PHE346  HIS349  VAL350  TYR365  THR369  GLY372  TYR373 

> <Gold.Protein.RotatedAtoms>
    4.9109   -9.2267    4.8563 H   0  0  0  0  0  0  0  0  0  0  0  0  # atno 1303 bound_to 1298
    0.4353   -9.0544    7.8844 H   0  0  0  0  0  0  0  0  0  0  0  0  # atno 2461 bound_to 2456
   -3.6381   -5.0126    8.5010 H   0  0  0  0  0  0  0  0  0  0  0  0  # atno 2472 bound_to 2467
    2.5559   -7.6528    4.5846 H   0  0  0  0  0  0  0  0  0  0  0  0  # atno 2515 bound_to 2510
   -2.6967  -17.7527   13.1976 H   0  0  0  0  0  0  0  0  0  0  0  0  # atno 3721 bound_to 3712
   -4.9246  -21.9450   11.4737 H   0  0  0  0  0  0  0  0  0  0  0  0  # atno 3767 bound_to 3762
    2.4512  -19.6611    8.3769 H   0  0  0  0  0  0  0  0  0  0  0  0  # atno 3841 bound_to 3832
    3.6957  -10.2148    4.3946 LP  0  0  0  0  0  0  0  0  0  0  0  0  # atno 4297 bound_to 1298
    3.7553   -8.6799    3.8405 LP  0  0  0  0  0  0  0  0  0  0  0  0  # atno 4298 bound_to 1298
    2.0197   -8.8240    8.2072 LP  0  0  0  0  0  0  0  0  0  0  0  0  # atno 4299 bound_to 2456
    1.2825   -7.9299    7.0566 LP  0  0  0  0  0  0  0  0  0  0  0  0  # atno 4300 bound_to 2456
    2.7032   -9.2156    5.0337 LP  0  0  0  0  0  0  0  0  0  0  0  0  # atno 4301 bound_to 2510
    2.0376   -8.1311    6.0572 LP  0  0  0  0  0  0  0  0  0  0  0  0  # atno 4302 bound_to 2510
   -2.8474  -17.6685   14.7939 LP  0  0  0  0  0  0  0  0  0  0  0  0  # atno 4306 bound_to 3712
   -3.5669  -16.5620   13.8323 LP  0  0  0  0  0  0  0  0  0  0  0  0  # atno 4307 bound_to 3712
    2.9338  -21.0534    9.0129 LP  0  0  0  0  0  0  0  0  0  0  0  0  # atno 4314 bound_to 3832
    1.4640  -20.4403    9.3741 LP  0  0  0  0  0  0  0  0  0  0  0  0  # atno 4315 bound_to 3832
   -3.9323  -23.1447   10.9808 LP  0  0  0  0  0  0  0  0  0  0  0  0  # atno 4318 bound_to 3762
   -5.2705  -22.7851   10.1167 LP  0  0  0  0  0  0  0  0  0  0  0  0  # atno 4319 bound_to 3762
   -4.9679   -5.4593    9.3367 LP  0  0  0  0  0  0  0  0  0  0  0  0  # atno 4320 bound_to 2467
   -5.1108   -4.9217    7.8014 LP  0  0  0  0  0  0  0  0  0  0  0  0  # atno 4321 bound_to 2467

> <Gold.Score>
     Score     S(PLP)   S(hbond)     S(cho)   S(metal)  DE(clash)   DE(tors)     intcor
     41.29     -39.12       0.83       0.00       0.00       0.00       0.57       0.82

> <Gold.PLP.Fitness>
41.2862

> <Gold.PLP.PLP>
-39.1162

> <Gold.PLP.part.hbond>
-1.7094

> <Gold.PLP.part.metal>
0.0000

> <Gold.PLP.part.buried>
-7.4989

> <Gold.PLP.part.nonpolar>
-30.7156

> <Gold.PLP.part.repulsive>
0.2985

> <Gold.PLP.ligand.clash>
0.0000

> <Gold.PLP.ligand.torsion>
0.5734

> <Gold.PLP.Chemscore.Hbond>
0.8320

> <Gold.PLP.Chemscore.CHOScore>
0.0000

> <Gold.PLP.Chemscore.Metal>
0.0000

> <Gold.Chemscore.Hbonds>
donor molecule, donor type, donor heavy atom, donor atom, acceptor molecule, acceptor atom, score
      P1  H  3712  3721       L1     7  0.83

> <Gold.PLP.Chemscore.Internal.Correction>
0.8209

