#       Name:                EN300-1719111_i001
#       Creating user name   fsindt
#       Creation time:       Thu Mar  2 00:30:12 2023


#       File generated by GOLD software.
#

@<TRIPOS>MOLECULE
EN300-1719111_i001|acide_1|mol2|10811|dock3
    40    42     1
SMALL
USER_CHARGES


@<TRIPOS>ATOM
      1 C1          -0.6287 -18.1483  12.3840 C.3            1 <1>                0.0000
      2 C2           0.1218 -17.1111  13.2218 C.3            1 <1>                0.0000
      3 C3          -0.0902 -17.4060  14.7081 C.3            1 <1>                0.0000
      4 C4           1.6154 -17.1770  12.8968 C.3            1 <1>                0.0000
      5 O5          -0.3823 -15.7845  12.9150 O.3            1 <1>                0.0000
      6 C6          -0.1927 -15.3336  11.6606 C.2            1 <1>                0.0000
      7 O7           0.2092 -16.0890  10.7977 O.2            1 <1>                0.0000
      8 N8          -0.4487 -14.0445  11.3619 N.am           1 <1>                0.0000
      9 C9          -0.3695 -13.2036  10.1527 C.3            1 <1>                0.0000
     10 C10         -1.4274 -12.3244  10.7802 C.3            1 <1>                0.0000
     11 C11         -0.9357 -12.8647  12.1011 C.3            1 <1>                0.0000
     12 O12         -2.7975 -12.5381  10.4248 O.3            1 <1>                0.0000
     13 C13         -3.2271 -11.1823  10.0705 C.3            1 <1>                0.0000
     14 C14         -4.6716 -11.0029   9.5990 C.3            1 <1>                0.0000
     15 C15         -2.0630 -10.6333   9.2076 C.3            1 <1>                0.0000
     16 C16         -1.2960 -10.7958  10.5518 C.3            1 <1>                0.0000
     17 C17         -2.6425 -10.1793  11.1080 C.3            1 <1>                0.0000
     18 C18          0.0369 -10.1335  10.7882 C.2            1 <1>                0.0000
     19 O19          0.1591  -9.3104  11.6792 O.co2          1 <1>                0.0000
     20 O20          0.9929 -10.4210  10.0882 O.co2          1 <1>               -1.0000
     21 H21         -1.6928 -18.1014  12.6156 H              1 <1>                0.0000
     22 H22         -0.4777 -17.9382  11.3251 H              1 <1>                0.0000
     23 H23         -0.2503 -19.1442  12.6144 H              1 <1>                0.0000
     24 H24          0.2883 -18.4020  14.9385 H              1 <1>                0.0000
     25 H25          0.4445 -16.6672  15.3050 H              1 <1>                0.0000
     26 H26         -1.1542 -17.3591  14.9397 H              1 <1>                0.0000
     27 H27          1.7665 -16.9669  11.8379 H              1 <1>                0.0000
     28 H28          2.1501 -16.4381  13.4936 H              1 <1>                0.0000
     29 H29          1.9938 -18.1729  13.1272 H              1 <1>                0.0000
     30 H30          0.5929 -12.7070  10.0293 H              1 <1>                0.0000
     31 H31         -0.7042 -13.7097   9.2471 H              1 <1>                0.0000
     32 H32         -1.7366 -13.0886  12.8057 H              1 <1>                0.0000
     33 H33         -0.1353 -12.2718  12.5437 H              1 <1>                0.0000
     34 H34         -5.3517 -11.4001  10.3525 H              1 <1>                0.0000
     35 H35         -4.8755  -9.9429   9.4480 H              1 <1>                0.0000
     36 H36         -4.8165 -11.5381   8.6605 H              1 <1>                0.0000
     37 H37         -1.7326 -11.3035   8.4142 H              1 <1>                0.0000
     38 H38         -2.1897  -9.6011   8.8809 H              1 <1>                0.0000
     39 H39         -2.7971  -9.1291  10.8601 H              1 <1>                0.0000
     40 H40         -2.8540 -10.4172  12.1505 H              1 <1>                0.0000
@<TRIPOS>BOND
    1    1    2 1     
    2    1   21 1     
    3    1   22 1     
    4    1   23 1     
    5    2    3 1     
    6    2    4 1     
    7    2    5 1     
    8    3   24 1     
    9    3   25 1     
   10    3   26 1     
   11    4   27 1     
   12    4   28 1     
   13    4   29 1     
   14    5    6 1     
   15    6    7 2     
   16    6    8 am    
   17    8    9 1     
   18    8   11 1     
   19    9   10 1     
   20    9   30 1     
   21    9   31 1     
   22   10   11 1     
   23   10   12 1     
   24   10   16 1     
   25   11   32 1     
   26   11   33 1     
   27   12   13 1     
   28   13   14 1     
   29   13   15 1     
   30   13   17 1     
   31   14   34 1     
   32   14   35 1     
   33   14   36 1     
   34   15   16 1     
   35   15   37 1     
   36   15   38 1     
   37   16   17 1     
   38   16   18 1     
   39   17   39 1     
   40   17   40 1     
   41   18   19 ar    
   42   18   20 ar    
@<TRIPOS>SUBSTRUCTURE
      1 ****           1
@<TRIPOS>COMMENT
> <Gold.Version>
2022.2.0

> <Gold.Id.Protein>
3pbl|protein|mol2

> <Gold.Protein.RotatedTorsions>
[ 1303 1298 1297 1294 ] final -160.64 input  179.99 | X-H torsion
[ 2461 2456 2455 2452 ] final -165.35 input   30.03 | X-H torsion
[ 2515 2510 2509 2506 ] final -168.37 input  -89.99 | X-H torsion
[ 3721 3712 3711 3710 ] final   41.85 input -179.91 | X-H torsion
[ 3841 3832 3831 3830 ] final -175.91 input -179.91 | X-H torsion
[ 3767 3762 3761 3758 ] final   38.66 input  -89.99 | X-H torsion
[ 2472 2467 2466 2463 ] final  -69.24 input  -89.97 | X-H torsion

> <Gold.Protein.ActiveResidues>
 VAL82   VAL86   LEU89   PHE106  VAL107  ASP110  VAL111  MET112  CYS114  THR115 
 CYS181  SER182  ILE183  PHE188  VAL189  ILE190  SER192  SER193  SER196  TRP342 
 PHE345  PHE346  HIS349  VAL350  TYR365  THR369  GLY372  TYR373 

> <Gold.Protein.RotatedAtoms>
    4.7159   -8.6555    4.4992 H   0  0  0  0  0  0  0  0  0  0  0  0  # atno 1303 bound_to 1298
    1.2185   -9.2744    8.3775 H   0  0  0  0  0  0  0  0  0  0  0  0  # atno 2461 bound_to 2456
   -3.8032   -5.2397    9.0808 H   0  0  0  0  0  0  0  0  0  0  0  0  # atno 2472 bound_to 2467
    2.4043   -9.1433    5.7056 H   0  0  0  0  0  0  0  0  0  0  0  0  # atno 2515 bound_to 2510
   -2.5130  -18.0068   13.6262 H   0  0  0  0  0  0  0  0  0  0  0  0  # atno 3721 bound_to 3712
   -4.8662  -23.1368   10.0807 H   0  0  0  0  0  0  0  0  0  0  0  0  # atno 3767 bound_to 3762
    2.9209  -20.0040    8.3930 H   0  0  0  0  0  0  0  0  0  0  0  0  # atno 3841 bound_to 3832
    4.2742  -10.2002    4.7910 LP  0  0  0  0  0  0  0  0  0  0  0  0  # atno 4297 bound_to 1298
    3.3718   -9.2659    3.8014 LP  0  0  0  0  0  0  0  0  0  0  0  0  # atno 4298 bound_to 1298
    2.0519   -8.1460    7.5411 LP  0  0  0  0  0  0  0  0  0  0  0  0  # atno 4299 bound_to 2456
    0.4673   -8.3880    7.2297 LP  0  0  0  0  0  0  0  0  0  0  0  0  # atno 4300 bound_to 2456
    2.0974   -7.5423    5.6143 LP  0  0  0  0  0  0  0  0  0  0  0  0  # atno 4301 bound_to 2510
    2.7949   -8.3132    4.3550 LP  0  0  0  0  0  0  0  0  0  0  0  0  # atno 4302 bound_to 2510
   -3.1353  -17.1590   14.8395 LP  0  0  0  0  0  0  0  0  0  0  0  0  # atno 4306 bound_to 3712
   -3.4911  -16.7782   13.2919 LP  0  0  0  0  0  0  0  0  0  0  0  0  # atno 4307 bound_to 3712
    2.4345  -21.1487    9.4075 LP  0  0  0  0  0  0  0  0  0  0  0  0  # atno 4314 bound_to 3832
    1.4207  -19.9490    8.9610 LP  0  0  0  0  0  0  0  0  0  0  0  0  # atno 4315 bound_to 3832
   -5.3118  -21.9425   11.1015 LP  0  0  0  0  0  0  0  0  0  0  0  0  # atno 4318 bound_to 3762
   -3.9495  -22.7959   11.3885 LP  0  0  0  0  0  0  0  0  0  0  0  0  # atno 4319 bound_to 3762
   -5.4216   -5.3492    8.8928 LP  0  0  0  0  0  0  0  0  0  0  0  0  # atno 4320 bound_to 2467
   -4.4920   -4.8047    7.6656 LP  0  0  0  0  0  0  0  0  0  0  0  0  # atno 4321 bound_to 2467

> <Gold.Score>
     Score     S(PLP)   S(hbond)     S(cho)   S(metal)  DE(clash)   DE(tors)     intcor
     52.40     -50.14       0.96       0.00       0.00       0.68       0.39       0.84

> <Gold.PLP.Fitness>
52.3995

> <Gold.PLP.PLP>
-50.1371

> <Gold.PLP.part.hbond>
-1.0000

> <Gold.PLP.part.metal>
0.0000

> <Gold.PLP.part.buried>
3.3808

> <Gold.PLP.part.nonpolar>
-54.5712

> <Gold.PLP.part.repulsive>
0.6877

> <Gold.PLP.ligand.clash>
0.6828

> <Gold.PLP.ligand.torsion>
0.3897

> <Gold.PLP.Chemscore.Hbond>
0.9600

> <Gold.PLP.Chemscore.CHOScore>
0.0000

> <Gold.PLP.Chemscore.Metal>
0.0000

> <Gold.Chemscore.Hbonds>
donor molecule, donor type, donor heavy atom, donor atom, acceptor molecule, acceptor atom, score
      P1  H  2456  2461       L1    20  0.96

> <Gold.PLP.Chemscore.Internal.Correction>
0.8446

