#       Name:                EN300-1719111_i001
#       Creating user name   fsindt
#       Creation time:       Thu Mar  2 00:30:16 2023


#       File generated by GOLD software.
#

@<TRIPOS>MOLECULE
EN300-1719111_i001|acide_1|mol2|10811|dock7
    40    42     1
SMALL
USER_CHARGES


@<TRIPOS>ATOM
      1 C1           2.3155 -17.9935  12.8630 C.3            1 <1>                0.0000
      2 C2           1.6113 -17.1191  13.9026 C.3            1 <1>                0.0000
      3 C3           0.3965 -17.8653  14.4579 C.3            1 <1>                0.0000
      4 C4           2.5805 -16.8023  15.0433 C.3            1 <1>                0.0000
      5 O5           1.1761 -15.8819  13.2795 O.3            1 <1>                0.0000
      6 C6           0.4261 -15.9889  12.1665 C.2            1 <1>                0.0000
      7 O7          -0.0745 -17.0561  11.8715 O.2            1 <1>                0.0000
      8 N8           0.2305 -14.9123  11.3796 N.am           1 <1>                0.0000
      9 C9          -0.4984 -14.6365  10.1273 C.3            1 <1>                0.0000
     10 C10         -0.5788 -13.1944  10.5741 C.3            1 <1>                0.0000
     11 C11          0.6472 -13.4976  11.4009 C.3            1 <1>                0.0000
     12 O12         -1.7608 -12.7487  11.2472 O.3            1 <1>                0.0000
     13 C13         -2.1001 -11.5438  10.4847 C.3            1 <1>                0.0000
     14 C14         -3.3582 -10.7790  10.9009 C.3            1 <1>                0.0000
     15 C15         -1.9134 -11.9701   9.0067 C.3            1 <1>                0.0000
     16 C16         -0.4358 -12.1097   9.4746 C.3            1 <1>                0.0000
     17 C17         -0.7951 -10.7464  10.1920 C.3            1 <1>                0.0000
     18 C18          0.7004 -12.2125   8.4899 C.2            1 <1>                0.0000
     19 O19          1.3963 -11.2386   8.2582 O.co2          1 <1>                0.0000
     20 O20          0.9235 -13.2697   7.9250 O.co2          1 <1>               -1.0000
     21 H21          1.6251 -18.2192  12.0504 H              1 <1>                0.0000
     22 H22          3.1810 -17.4618  12.4674 H              1 <1>                0.0000
     23 H23          2.6422 -18.9223  13.3308 H              1 <1>                0.0000
     24 H24          0.7232 -18.7941  14.9256 H              1 <1>                0.0000
     25 H25         -0.1051 -17.2425  15.1984 H              1 <1>                0.0000
     26 H26         -0.2939 -18.0911  13.6453 H              1 <1>                0.0000
     27 H27          3.4459 -16.2707  14.6477 H              1 <1>                0.0000
     28 H28          2.0788 -16.1795  15.7838 H              1 <1>                0.0000
     29 H29          2.9072 -17.7311  15.5110 H              1 <1>                0.0000
     30 H30          0.1044 -14.7823   9.2309 H              1 <1>                0.0000
     31 H31         -1.4687 -15.1299  10.0700 H              1 <1>                0.0000
     32 H32          0.6249 -13.0489  12.3941 H              1 <1>                0.0000
     33 H33          1.5840 -13.3154  10.8745 H              1 <1>                0.0000
     34 H34         -3.2919 -10.5179  11.9571 H              1 <1>                0.0000
     35 H35         -3.4439  -9.8695  10.3064 H              1 <1>                0.0000
     36 H36         -4.2352 -11.4050  10.7357 H              1 <1>                0.0000
     37 H37         -2.3953 -12.9116   8.7429 H              1 <1>                0.0000
     38 H38         -2.0851 -11.1749   8.2811 H              1 <1>                0.0000
     39 H39         -0.9232  -9.8990   9.5184 H              1 <1>                0.0000
     40 H40         -0.1861 -10.5199  11.0672 H              1 <1>                0.0000
@<TRIPOS>BOND
    1    1    2 1     
    2    1   21 1     
    3    1   22 1     
    4    1   23 1     
    5    2    3 1     
    6    2    4 1     
    7    2    5 1     
    8    3   24 1     
    9    3   25 1     
   10    3   26 1     
   11    4   27 1     
   12    4   28 1     
   13    4   29 1     
   14    5    6 1     
   15    6    7 2     
   16    6    8 am    
   17    8    9 1     
   18    8   11 1     
   19    9   10 1     
   20    9   30 1     
   21    9   31 1     
   22   10   11 1     
   23   10   12 1     
   24   10   16 1     
   25   11   32 1     
   26   11   33 1     
   27   12   13 1     
   28   13   14 1     
   29   13   15 1     
   30   13   17 1     
   31   14   34 1     
   32   14   35 1     
   33   14   36 1     
   34   15   16 1     
   35   15   37 1     
   36   15   38 1     
   37   16   17 1     
   38   16   18 1     
   39   17   39 1     
   40   17   40 1     
   41   18   19 ar    
   42   18   20 ar    
@<TRIPOS>SUBSTRUCTURE
      1 ****           1
@<TRIPOS>COMMENT
> <Gold.Version>
2022.2.0

> <Gold.Id.Protein>
3pbl|protein|mol2

> <Gold.Protein.RotatedTorsions>
[ 1303 1298 1297 1294 ] final  -20.17 input  179.99 | X-H torsion
[ 2461 2456 2455 2452 ] final -157.51 input   30.03 | X-H torsion
[ 2515 2510 2509 2506 ] final  -77.29 input  -89.99 | X-H torsion
[ 3721 3712 3711 3710 ] final   71.75 input -179.91 | X-H torsion
[ 3841 3832 3831 3830 ] final  163.38 input -179.91 | X-H torsion
[ 3767 3762 3761 3758 ] final  126.49 input  -89.99 | X-H torsion
[ 2472 2467 2466 2463 ] final  113.71 input  -89.97 | X-H torsion

> <Gold.Protein.ActiveResidues>
 VAL82   VAL86   LEU89   PHE106  VAL107  ASP110  VAL111  MET112  CYS114  THR115 
 CYS181  SER182  ILE183  PHE188  VAL189  ILE190  SER192  SER193  SER196  TRP342 
 PHE345  PHE346  HIS349  VAL350  TYR365  THR369  GLY372  TYR373 

> <Gold.Protein.RotatedAtoms>
    3.3298   -9.5844    3.8964 H   0  0  0  0  0  0  0  0  0  0  0  0  # atno 1303 bound_to 1298
    1.0939   -9.2872    8.3468 H   0  0  0  0  0  0  0  0  0  0  0  0  # atno 2461 bound_to 2456
   -5.3679   -5.0399    8.0489 H   0  0  0  0  0  0  0  0  0  0  0  0  # atno 2472 bound_to 2467
    2.8353   -8.7626    4.4894 H   0  0  0  0  0  0  0  0  0  0  0  0  # atno 2515 bound_to 2510
   -2.6592  -17.8096   13.2528 H   0  0  0  0  0  0  0  0  0  0  0  0  # atno 3721 bound_to 3712
   -3.9287  -23.1365   10.9930 H   0  0  0  0  0  0  0  0  0  0  0  0  # atno 3767 bound_to 3762
    3.0739  -20.2460    8.5150 H   0  0  0  0  0  0  0  0  0  0  0  0  # atno 3841 bound_to 3832
    4.4966   -8.5122    4.2905 LP  0  0  0  0  0  0  0  0  0  0  0  0  # atno 4297 bound_to 1298
    4.5361  -10.0247    4.9049 LP  0  0  0  0  0  0  0  0  0  0  0  0  # atno 4298 bound_to 1298
    2.1036   -8.2201    7.6332 LP  0  0  0  0  0  0  0  0  0  0  0  0  # atno 4299 bound_to 2456
    0.5403   -8.3011    7.1684 LP  0  0  0  0  0  0  0  0  0  0  0  0  # atno 4300 bound_to 2456
    2.2129   -8.8273    5.9975 LP  0  0  0  0  0  0  0  0  0  0  0  0  # atno 4301 bound_to 2510
    2.2483   -7.4091    5.1887 LP  0  0  0  0  0  0  0  0  0  0  0  0  # atno 4302 bound_to 2510
   -2.8907  -17.5879   14.8260 LP  0  0  0  0  0  0  0  0  0  0  0  0  # atno 4306 bound_to 3712
   -3.5669  -16.5768   13.7365 LP  0  0  0  0  0  0  0  0  0  0  0  0  # atno 4307 bound_to 3712
    2.1220  -21.0584    9.5200 LP  0  0  0  0  0  0  0  0  0  0  0  0  # atno 4314 bound_to 3832
    1.5565  -19.7597    8.7075 LP  0  0  0  0  0  0  0  0  0  0  0  0  # atno 4315 bound_to 3832
   -5.2611  -22.7963   10.1122 LP  0  0  0  0  0  0  0  0  0  0  0  0  # atno 4318 bound_to 3762
   -4.9373  -21.9424   11.4659 LP  0  0  0  0  0  0  0  0  0  0  0  0  # atno 4319 bound_to 3762
   -3.7447   -4.9001    8.1584 LP  0  0  0  0  0  0  0  0  0  0  0  0  # atno 4320 bound_to 2467
   -4.6044   -5.4535    9.4317 LP  0  0  0  0  0  0  0  0  0  0  0  0  # atno 4321 bound_to 2467

> <Gold.Score>
     Score     S(PLP)   S(hbond)     S(cho)   S(metal)  DE(clash)   DE(tors)     intcor
     41.86     -39.21       1.00       0.00       0.00       0.00       0.59       0.82

> <Gold.PLP.Fitness>
41.8592

> <Gold.PLP.PLP>
-39.2123

> <Gold.PLP.part.hbond>
-1.0000

> <Gold.PLP.part.metal>
0.0000

> <Gold.PLP.part.buried>
-5.1331

> <Gold.PLP.part.nonpolar>
-33.9687

> <Gold.PLP.part.repulsive>
0.2315

> <Gold.PLP.ligand.clash>
0.0000

> <Gold.PLP.ligand.torsion>
0.5870

> <Gold.PLP.Chemscore.Hbond>
1.0000

> <Gold.PLP.Chemscore.CHOScore>
0.0000

> <Gold.PLP.Chemscore.Metal>
0.0000

> <Gold.Chemscore.Hbonds>
donor molecule, donor type, donor heavy atom, donor atom, acceptor molecule, acceptor atom, score
      P1  H  2456  2461       L1    19  1.00

> <Gold.PLP.Chemscore.Internal.Correction>
0.8209

