#       Name:                EN300-312564_i001
#       Creating user name   fsindt
#       Creation time:       Mon Feb 27 20:44:50 2023


#       File generated by GOLD software.
#

@<TRIPOS>MOLECULE
EN300-312564_i001|amine_3|mol2|696|dock18
    38    38     1
SMALL
USER_CHARGES


@<TRIPOS>ATOM
      1 C1          -0.3627 -16.4996  14.6991 C.3            1 <1>                0.0000
      2 C2           1.0848 -16.7000  14.2457 C.3            1 <1>                0.0000
      3 C3           1.1009 -17.2290  12.8101 C.3            1 <1>                0.0000
      4 C4           0.3499 -16.2511  11.8820 C.3            1 <1>                0.0000
      5 N5           1.2962 -15.3985  11.1503 N.4            1 <1>                1.0000
      6 C6          -0.3987 -17.2005  10.9096 C.3            1 <1>                0.0000
      7 C7          -0.7607 -18.3812  11.8448 C.3            1 <1>                0.0000
      8 N8           0.3989 -18.5191  12.7447 N.am           1 <1>                0.0000
      9 C9           0.7564 -19.6420  13.3988 C.2            1 <1>                0.0000
     10 O10          1.6813 -19.6179  14.1864 O.2            1 <1>                0.0000
     11 O11          0.0888 -20.7904  13.1793 O.3            1 <1>                0.0000
     12 C12          0.3039 -21.8693  14.1270 C.3            1 <1>                0.0000
     13 C13          0.0433 -21.3610  15.5464 C.3            1 <1>                0.0000
     14 C14         -0.6532 -23.0212  13.8142 C.3            1 <1>                0.0000
     15 C15          1.7481 -22.3626  14.0190 C.3            1 <1>                0.0000
     16 H16         -0.3762 -16.1856  15.7428 H              1 <1>                0.0000
     17 H17         -0.8336 -15.7335  14.0831 H              1 <1>                0.0000
     18 H18         -0.9093 -17.4368  14.5944 H              1 <1>                0.0000
     19 H19          1.6140 -15.7479  14.2880 H              1 <1>                0.0000
     20 H20          1.5753 -17.4179  14.9029 H              1 <1>                0.0000
     21 H21          2.1297 -17.3465  12.4700 H              1 <1>                0.0000
     22 H22         -0.3543 -15.6436  12.4506 H              1 <1>                0.0000
     23 H23         -1.2967 -16.7259  10.5141 H              1 <1>                0.0000
     24 H24          0.2560 -17.5283  10.1021 H              1 <1>                0.0000
     25 H25         -1.6594 -18.1505  12.4167 H              1 <1>                0.0000
     26 H26         -0.9024 -19.2940  11.2660 H              1 <1>                0.0000
     27 H27         -0.9855 -21.0095  15.6233 H              1 <1>                0.0000
     28 H28          0.2048 -22.1708  16.2577 H              1 <1>                0.0000
     29 H29          0.7252 -20.5403  15.7692 H              1 <1>                0.0000
     30 H30         -0.4676 -23.3834  12.8030 H              1 <1>                0.0000
     31 H31         -0.4917 -23.8311  14.5255 H              1 <1>                0.0000
     32 H32         -1.6822 -22.6698  13.8910 H              1 <1>                0.0000
     33 H33          2.4300 -21.5419  14.2418 H              1 <1>                0.0000
     34 H34          1.9096 -23.1725  14.7304 H              1 <1>                0.0000
     35 H35          1.9338 -22.7247  13.0078 H              1 <1>                0.0000
     36 H36          1.9806 -15.9768  10.6863 H              1 <1>                0.0000
     37 H37          0.7963 -14.8528  10.4644 H              1 <1>                0.0000
     38 H38          1.7618 -14.7802  11.7977 H              1 <1>                0.0000
@<TRIPOS>BOND
    1    1    2 1     
    2    1   16 1     
    3    1   17 1     
    4    1   18 1     
    5    2    3 1     
    6    2   19 1     
    7    2   20 1     
    8    3    4 1     
    9    3    8 1     
   10    3   21 1     
   11    4    5 1     
   12    4    6 1     
   13    4   22 1     
   14    5   36 1     
   15    5   37 1     
   16    5   38 1     
   17    6    7 1     
   18    6   23 1     
   19    6   24 1     
   20    7    8 1     
   21    7   25 1     
   22    7   26 1     
   23    8    9 am    
   24    9   10 2     
   25    9   11 1     
   26   11   12 1     
   27   12   13 1     
   28   12   14 1     
   29   12   15 1     
   30   13   27 1     
   31   13   28 1     
   32   13   29 1     
   33   14   30 1     
   34   14   31 1     
   35   14   32 1     
   36   15   33 1     
   37   15   34 1     
   38   15   35 1     
@<TRIPOS>SUBSTRUCTURE
      1 ****           1
@<TRIPOS>SET
DONOR_HYDROGENS      STATIC     ATOMS    <user>   **** ""
3 36 37 38
ATOM$RED        STATIC     ATOMS    COLORGROUP SYSTEM
3 36 37 38
@<TRIPOS>COMMENT
> <Gold.Version>
2022.2.0

> <Gold.Id.Protein>
3pbl|protein|mol2

> <Gold.Protein.RotatedTorsions>
[ 1303 1298 1297 1294 ] final   38.96 input  179.99 | X-H torsion
[ 2461 2456 2455 2452 ] final -177.64 input   30.03 | X-H torsion
[ 2515 2510 2509 2506 ] final   54.35 input  -89.99 | X-H torsion
[ 3721 3712 3711 3710 ] final  -71.67 input -179.91 | X-H torsion
[ 3841 3832 3831 3830 ] final  -65.64 input -179.91 | X-H torsion
[ 3767 3762 3761 3758 ] final   71.10 input  -89.99 | X-H torsion
[ 2472 2467 2466 2463 ] final   39.25 input  -89.97 | X-H torsion

> <Gold.Protein.ActiveResidues>
 VAL82   VAL86   LEU89   PHE106  VAL107  ASP110  VAL111  MET112  CYS114  THR115 
 CYS181  SER182  ILE183  PHE188  VAL189  ILE190  SER192  SER193  SER196  TRP342 
 PHE345  PHE346  HIS349  VAL350  TYR365  THR369  GLY372  TYR373 

> <Gold.Protein.RotatedAtoms>
    3.7345  -10.2312    4.4286 H   0  0  0  0  0  0  0  0  0  0  0  0  # atno 1303 bound_to 1298
    1.4139   -9.2292    8.4006 H   0  0  0  0  0  0  0  0  0  0  0  0  # atno 2461 bound_to 2456
   -4.3072   -4.7992    7.7047 H   0  0  0  0  0  0  0  0  0  0  0  0  # atno 2472 bound_to 2467
    2.1798   -7.4359    5.3651 H   0  0  0  0  0  0  0  0  0  0  0  0  # atno 2515 bound_to 2510
   -2.8875  -17.1781   14.7543 H   0  0  0  0  0  0  0  0  0  0  0  0  # atno 3721 bound_to 3712
   -4.4197  -23.3212   10.2907 H   0  0  0  0  0  0  0  0  0  0  0  0  # atno 3767 bound_to 3762
    1.6445  -19.7633    8.9679 H   0  0  0  0  0  0  0  0  0  0  0  0  # atno 3841 bound_to 3832
    3.7158   -8.7136    3.8261 LP  0  0  0  0  0  0  0  0  0  0  0  0  # atno 4297 bound_to 1298
    4.9120   -9.1762    4.8369 LP  0  0  0  0  0  0  0  0  0  0  0  0  # atno 4298 bound_to 1298
    1.9412   -8.0475    7.4041 LP  0  0  0  0  0  0  0  0  0  0  0  0  # atno 4299 bound_to 2456
    0.3827   -8.5316    7.3436 LP  0  0  0  0  0  0  0  0  0  0  0  0  # atno 4300 bound_to 2456
    2.8312   -8.5889    4.4100 LP  0  0  0  0  0  0  0  0  0  0  0  0  # atno 4301 bound_to 2510
    2.2858   -8.9748    5.9001 LP  0  0  0  0  0  0  0  0  0  0  0  0  # atno 4302 bound_to 2510
   -3.5063  -16.7446   13.3376 LP  0  0  0  0  0  0  0  0  0  0  0  0  # atno 4306 bound_to 3712
   -2.6878  -18.1492   13.4914 LP  0  0  0  0  0  0  0  0  0  0  0  0  # atno 4307 bound_to 3712
    2.9969  -20.2461    8.2511 LP  0  0  0  0  0  0  0  0  0  0  0  0  # atno 4314 bound_to 3832
    2.3329  -21.1296    9.4532 LP  0  0  0  0  0  0  0  0  0  0  0  0  # atno 4315 bound_to 3832
   -5.5017  -22.1547   10.6586 LP  0  0  0  0  0  0  0  0  0  0  0  0  # atno 4318 bound_to 3762
   -4.2058  -22.3994   11.6216 LP  0  0  0  0  0  0  0  0  0  0  0  0  # atno 4319 bound_to 3762
   -3.9258   -5.2995    9.2116 LP  0  0  0  0  0  0  0  0  0  0  0  0  # atno 4320 bound_to 2467
   -5.4839   -5.2947    8.7227 LP  0  0  0  0  0  0  0  0  0  0  0  0  # atno 4321 bound_to 2467

> <Gold.Score>
     Score     S(PLP)   S(hbond)     S(cho)   S(metal)  DE(clash)   DE(tors)     intcor
     36.99     -31.00       2.00       0.00       0.00       0.00       0.22       0.42

> <Gold.PLP.Fitness>
36.9889

> <Gold.PLP.PLP>
-30.9994

> <Gold.PLP.part.hbond>
-1.0000

> <Gold.PLP.part.metal>
0.0000

> <Gold.PLP.part.buried>
-3.4652

> <Gold.PLP.part.nonpolar>
-27.0457

> <Gold.PLP.part.repulsive>
0.0405

> <Gold.PLP.ligand.clash>
0.0000

> <Gold.PLP.ligand.torsion>
0.2172

> <Gold.PLP.Chemscore.Hbond>
2.0000

> <Gold.PLP.Chemscore.CHOScore>
0.0000

> <Gold.PLP.Chemscore.Metal>
0.0000

> <Gold.Chemscore.Hbonds>
donor molecule, donor type, donor heavy atom, donor atom, acceptor molecule, acceptor atom, score
      L1  H     5    36       P1  1227  2.00

> <Gold.PLP.Chemscore.Internal.Correction>
0.4239

