#       Name:                EN300-312564_i001
#       Creating user name   fsindt
#       Creation time:       Mon Feb 27 20:44:35 2023


#       File generated by GOLD software.
#

@<TRIPOS>MOLECULE
EN300-312564_i001|amine_3|mol2|696|dock4
    38    38     1
SMALL
USER_CHARGES


@<TRIPOS>ATOM
      1 C1          -1.5188 -10.6149  10.2958 C.3            1 <1>                0.0000
      2 C2          -1.4324 -12.1259  10.5203 C.3            1 <1>                0.0000
      3 C3          -0.0490 -12.6258  10.0990 C.3            1 <1>                0.0000
      4 C4           0.1904 -12.3122   8.6070 C.3            1 <1>                0.0000
      5 N5           1.0225 -11.1112   8.4554 N.4            1 <1>                1.0000
      6 C6           0.9460 -13.5707   8.1044 C.3            1 <1>                0.0000
      7 C7           0.2705 -14.6911   8.9339 C.3            1 <1>                0.0000
      8 N8           0.0240 -14.0858  10.2554 N.am           1 <1>                0.0000
      9 C9          -0.1116 -14.7594  11.4149 C.2            1 <1>                0.0000
     10 O10         -0.4019 -14.1635  12.4333 O.2            1 <1>                0.0000
     11 O11          0.0750 -16.0924  11.4448 O.3            1 <1>                0.0000
     12 C12          0.5747 -16.6604  12.6842 C.3            1 <1>                0.0000
     13 C13         -0.5095 -16.5709  13.7600 C.3            1 <1>                0.0000
     14 C14          0.9495 -18.1265  12.4586 C.3            1 <1>                0.0000
     15 C15          1.8108 -15.8823  13.1398 C.3            1 <1>                0.0000
     16 H16         -2.5248 -10.2692  10.5337 H              1 <1>                0.0000
     17 H17         -0.7993 -10.1101  10.9404 H              1 <1>                0.0000
     18 H18         -1.2938 -10.3889   9.2535 H              1 <1>                0.0000
     19 H19         -1.5925 -12.3462  11.5757 H              1 <1>                0.0000
     20 H20         -2.1963 -12.6259   9.9249 H              1 <1>                0.0000
     21 H21          0.7189 -12.1467  10.7063 H              1 <1>                0.0000
     22 H22         -0.7570 -12.1923   8.0813 H              1 <1>                0.0000
     23 H23          0.7844 -13.7232   7.0373 H              1 <1>                0.0000
     24 H24          2.0101 -13.5041   8.3312 H              1 <1>                0.0000
     25 H25         -0.6704 -14.9902   8.4722 H              1 <1>                0.0000
     26 H26          0.9374 -15.5482   9.0277 H              1 <1>                0.0000
     27 H27         -1.3901 -17.1251  13.4354 H              1 <1>                0.0000
     28 H28         -0.1344 -16.9972  14.6903 H              1 <1>                0.0000
     29 H29         -0.7765 -15.5264  13.9206 H              1 <1>                0.0000
     30 H30          1.7220 -18.1903  11.6922 H              1 <1>                0.0000
     31 H31          1.3247 -18.5529  13.3889 H              1 <1>                0.0000
     32 H32          0.0689 -18.6809  12.1339 H              1 <1>                0.0000
     33 H33          1.5438 -14.8378  13.3005 H              1 <1>                0.0000
     34 H34          2.1859 -16.3087  14.0701 H              1 <1>                0.0000
     35 H35          2.5832 -15.9461  12.3734 H              1 <1>                0.0000
     36 H36          1.6958 -11.2594   7.7186 H              1 <1>                0.0000
     37 H37          0.4366 -10.3234   8.2222 H              1 <1>                0.0000
     38 H38          1.5065 -10.9258   9.3210 H              1 <1>                0.0000
@<TRIPOS>BOND
    1    1    2 1     
    2    1   16 1     
    3    1   17 1     
    4    1   18 1     
    5    2    3 1     
    6    2   19 1     
    7    2   20 1     
    8    3    4 1     
    9    3    8 1     
   10    3   21 1     
   11    4    5 1     
   12    4    6 1     
   13    4   22 1     
   14    5   36 1     
   15    5   37 1     
   16    5   38 1     
   17    6    7 1     
   18    6   23 1     
   19    6   24 1     
   20    7    8 1     
   21    7   25 1     
   22    7   26 1     
   23    8    9 am    
   24    9   10 2     
   25    9   11 1     
   26   11   12 1     
   27   12   13 1     
   28   12   14 1     
   29   12   15 1     
   30   13   27 1     
   31   13   28 1     
   32   13   29 1     
   33   14   30 1     
   34   14   31 1     
   35   14   32 1     
   36   15   33 1     
   37   15   34 1     
   38   15   35 1     
@<TRIPOS>SUBSTRUCTURE
      1 ****           1
@<TRIPOS>SET
DONOR_HYDROGENS      STATIC     ATOMS    <user>   **** ""
3 36 37 38
ATOM$RED        STATIC     ATOMS    COLORGROUP SYSTEM
3 36 37 38
@<TRIPOS>COMMENT
> <Gold.Version>
2022.2.0

> <Gold.Id.Protein>
3pbl|protein|mol2

> <Gold.Protein.RotatedTorsions>
[ 1303 1298 1297 1294 ] final   -0.97 input  179.99 | X-H torsion
[ 2461 2456 2455 2452 ] final   -9.12 input   30.03 | X-H torsion
[ 2515 2510 2509 2506 ] final  174.76 input  -89.99 | X-H torsion
[ 3721 3712 3711 3710 ] final  150.43 input -179.91 | X-H torsion
[ 3841 3832 3831 3830 ] final -103.15 input -179.91 | X-H torsion
[ 3767 3762 3761 3758 ] final   -2.28 input  -89.99 | X-H torsion
[ 2472 2467 2466 2463 ] final -141.33 input  -89.97 | X-H torsion

> <Gold.Protein.ActiveResidues>
 VAL82   VAL86   LEU89   PHE106  VAL107  ASP110  VAL111  MET112  CYS114  THR115 
 CYS181  SER182  ILE183  PHE188  VAL189  ILE190  SER192  SER193  SER196  TRP342 
 PHE345  PHE346  HIS349  VAL350  TYR365  THR369  GLY372  TYR373 

> <Gold.Protein.RotatedAtoms>
    3.3813   -9.8598    4.0391 H   0  0  0  0  0  0  0  0  0  0  0  0  # atno 1303 bound_to 1298
    0.9021   -8.0444    7.0383 H   0  0  0  0  0  0  0  0  0  0  0  0  # atno 2461 bound_to 2456
   -4.8464   -5.4640    9.3848 H   0  0  0  0  0  0  0  0  0  0  0  0  # atno 2472 bound_to 2467
    2.2887   -8.9793    5.8959 H   0  0  0  0  0  0  0  0  0  0  0  0  # atno 2515 bound_to 2510
   -3.2080  -16.8597   13.2019 H   0  0  0  0  0  0  0  0  0  0  0  0  # atno 3721 bound_to 3712
   -5.3432  -22.6886   10.1620 H   0  0  0  0  0  0  0  0  0  0  0  0  # atno 3767 bound_to 3762
    2.0041  -19.5826    8.5834 H   0  0  0  0  0  0  0  0  0  0  0  0  # atno 3841 bound_to 3832
    4.2466   -8.4765    4.1029 LP  0  0  0  0  0  0  0  0  0  0  0  0  # atno 4297 bound_to 1298
    4.7346   -9.7848    4.9497 LP  0  0  0  0  0  0  0  0  0  0  0  0  # atno 4298 bound_to 1298
    0.6831   -9.2270    8.1432 LP  0  0  0  0  0  0  0  0  0  0  0  0  # atno 4299 bound_to 2456
    2.1524   -8.5367    7.9665 LP  0  0  0  0  0  0  0  0  0  0  0  0  # atno 4300 bound_to 2456
    2.1773   -7.4372    5.3713 LP  0  0  0  0  0  0  0  0  0  0  0  0  # atno 4301 bound_to 2510
    2.8307   -8.5823    4.4078 LP  0  0  0  0  0  0  0  0  0  0  0  0  # atno 4302 bound_to 2510
   -2.6190  -18.2175   13.8243 LP  0  0  0  0  0  0  0  0  0  0  0  0  # atno 4306 bound_to 3712
   -3.2050  -17.0439   14.7969 LP  0  0  0  0  0  0  0  0  0  0  0  0  # atno 4307 bound_to 3712
    3.1242  -20.7319    8.6072 LP  0  0  0  0  0  0  0  0  0  0  0  0  # atno 4314 bound_to 3832
    1.7902  -20.8526    9.5413 LP  0  0  0  0  0  0  0  0  0  0  0  0  # atno 4315 bound_to 3832
   -4.8175  -21.9804   11.5364 LP  0  0  0  0  0  0  0  0  0  0  0  0  # atno 4318 bound_to 3762
   -3.9669  -23.2061   10.8725 LP  0  0  0  0  0  0  0  0  0  0  0  0  # atno 4319 bound_to 3762
   -5.2120   -4.9595    7.8755 LP  0  0  0  0  0  0  0  0  0  0  0  0  # atno 4320 bound_to 2467
   -3.6586   -4.9701    8.3790 LP  0  0  0  0  0  0  0  0  0  0  0  0  # atno 4321 bound_to 2467

> <Gold.Score>
     Score     S(PLP)   S(hbond)     S(cho)   S(metal)  DE(clash)   DE(tors)     intcor
     40.40     -39.41       0.48       0.00       0.00       0.00       0.46       0.47

> <Gold.PLP.Fitness>
40.4041

> <Gold.PLP.PLP>
-39.4071

> <Gold.PLP.part.hbond>
-1.0000

> <Gold.PLP.part.metal>
0.0000

> <Gold.PLP.part.buried>
-1.6491

> <Gold.PLP.part.nonpolar>
-37.9361

> <Gold.PLP.part.repulsive>
0.1702

> <Gold.PLP.ligand.clash>
0.0000

> <Gold.PLP.ligand.torsion>
0.4574

> <Gold.PLP.Chemscore.Hbond>
0.4800

> <Gold.PLP.Chemscore.CHOScore>
0.0000

> <Gold.PLP.Chemscore.Metal>
0.0000

> <Gold.Chemscore.Hbonds>
donor molecule, donor type, donor heavy atom, donor atom, acceptor molecule, acceptor atom, score
      L1  H     5    37       P1  2456  0.48

> <Gold.PLP.Chemscore.Internal.Correction>
0.4717

