#       Name:                EN300-312564_i001
#       Creating user name   fsindt
#       Creation time:       Mon Feb 27 20:44:37 2023


#       File generated by GOLD software.
#

@<TRIPOS>MOLECULE
EN300-312564_i001|amine_3|mol2|696|dock6
    38    38     1
SMALL
USER_CHARGES


@<TRIPOS>ATOM
      1 C1           0.7940 -14.5642   8.6274 C.3            1 <1>                0.0000
      2 C2           0.2008 -15.4350   9.7367 C.3            1 <1>                0.0000
      3 C3           0.7210 -14.9566  11.0938 C.3            1 <1>                0.0000
      4 C4           1.0254 -16.1705  11.9967 C.3            1 <1>                0.0000
      5 N5           2.4643 -16.4662  12.0023 N.4            1 <1>                1.0000
      6 C6           0.5586 -15.6888  13.3957 C.3            1 <1>                0.0000
      7 C7          -0.6761 -14.8269  13.0319 C.3            1 <1>                0.0000
      8 N8          -0.3102 -14.1567  11.7708 N.am           1 <1>                0.0000
      9 C9          -0.8339 -13.0017  11.3144 C.2            1 <1>                0.0000
     10 O10         -1.6179 -12.3769  12.0008 O.2            1 <1>                0.0000
     11 O11         -0.4883 -12.5404  10.0976 O.3            1 <1>                0.0000
     12 C12         -0.9201 -11.1971   9.7549 C.3            1 <1>                0.0000
     13 C13         -0.4111 -10.2130  10.8100 C.3            1 <1>                0.0000
     14 C14         -0.3555 -10.8138   8.3856 C.3            1 <1>                0.0000
     15 C15         -2.4486 -11.1492   9.7080 C.3            1 <1>                0.0000
     16 H16          0.4759 -14.9454   7.6570 H              1 <1>                0.0000
     17 H17          0.4466 -13.5379   8.7461 H              1 <1>                0.0000
     18 H18          1.8820 -14.5889   8.6886 H              1 <1>                0.0000
     19 H19         -0.8864 -15.3583   9.7168 H              1 <1>                0.0000
     20 H20          0.4946 -16.4729   9.5803 H              1 <1>                0.0000
     21 H21          1.6237 -14.3616  10.9558 H              1 <1>                0.0000
     22 H22          0.4551 -17.0424  11.6760 H              1 <1>                0.0000
     23 H23          0.2745 -16.5323  14.0248 H              1 <1>                0.0000
     24 H24          1.3277 -15.0854  13.8780 H              1 <1>                0.0000
     25 H25         -1.5509 -15.4603  12.8849 H              1 <1>                0.0000
     26 H26         -0.8674 -14.0896  13.8117 H              1 <1>                0.0000
     27 H27          0.6778 -10.2472  10.8435 H              1 <1>                0.0000
     28 H28         -0.7352  -9.2047  10.5528 H              1 <1>                0.0000
     29 H29         -0.8133 -10.4861  11.7856 H              1 <1>                0.0000
     30 H30         -0.7181 -11.5148   7.6338 H              1 <1>                0.0000
     31 H31         -0.6797  -9.8054   8.1283 H              1 <1>                0.0000
     32 H32          0.7334 -10.8479   8.4189 H              1 <1>                0.0000
     33 H33         -2.8509 -11.4224  10.6835 H              1 <1>                0.0000
     34 H34         -2.7727 -10.1408   9.4507 H              1 <1>                0.0000
     35 H35         -2.8112 -11.8503   8.9562 H              1 <1>                0.0000
     36 H36          2.9809 -15.6199  12.1896 H              1 <1>                0.0000
     37 H37          2.6647 -17.1481  12.7185 H              1 <1>                0.0000
     38 H38          2.7357 -16.8338  11.1027 H              1 <1>                0.0000
@<TRIPOS>BOND
    1    1    2 1     
    2    1   16 1     
    3    1   17 1     
    4    1   18 1     
    5    2    3 1     
    6    2   19 1     
    7    2   20 1     
    8    3    4 1     
    9    3    8 1     
   10    3   21 1     
   11    4    5 1     
   12    4    6 1     
   13    4   22 1     
   14    5   36 1     
   15    5   37 1     
   16    5   38 1     
   17    6    7 1     
   18    6   23 1     
   19    6   24 1     
   20    7    8 1     
   21    7   25 1     
   22    7   26 1     
   23    8    9 am    
   24    9   10 2     
   25    9   11 1     
   26   11   12 1     
   27   12   13 1     
   28   12   14 1     
   29   12   15 1     
   30   13   27 1     
   31   13   28 1     
   32   13   29 1     
   33   14   30 1     
   34   14   31 1     
   35   14   32 1     
   36   15   33 1     
   37   15   34 1     
   38   15   35 1     
@<TRIPOS>SUBSTRUCTURE
      1 ****           1
@<TRIPOS>SET
DONOR_HYDROGENS      STATIC     ATOMS    <user>   **** ""
3 36 37 38
ATOM$RED        STATIC     ATOMS    COLORGROUP SYSTEM
3 36 37 38
@<TRIPOS>COMMENT
> <Gold.Version>
2022.2.0

> <Gold.Id.Protein>
3pbl|protein|mol2

> <Gold.Protein.RotatedTorsions>
[ 1303 1298 1297 1294 ] final  -85.02 input  179.99 | X-H torsion
[ 2461 2456 2455 2452 ] final  -62.07 input   30.03 | X-H torsion
[ 2515 2510 2509 2506 ] final -141.50 input  -89.99 | X-H torsion
[ 3721 3712 3711 3710 ] final   38.00 input -179.91 | X-H torsion
[ 3841 3832 3831 3830 ] final  121.72 input -179.91 | X-H torsion
[ 3767 3762 3761 3758 ] final   23.25 input  -89.99 | X-H torsion
[ 2472 2467 2466 2463 ] final  -95.82 input  -89.97 | X-H torsion

> <Gold.Protein.ActiveResidues>
 VAL82   VAL86   LEU89   PHE106  VAL107  ASP110  VAL111  MET112  CYS114  THR115 
 CYS181  SER182  ILE183  PHE188  VAL189  ILE190  SER192  SER193  SER196  TRP342 
 PHE345  PHE346  HIS349  VAL350  TYR365  THR369  GLY372  TYR373 

> <Gold.Protein.RotatedAtoms>
    3.7638   -8.6730    3.8443 H   0  0  0  0  0  0  0  0  0  0  0  0  # atno 1303 bound_to 1298
    0.3615   -8.5844    7.3891 H   0  0  0  0  0  0  0  0  0  0  0  0  # atno 2461 bound_to 2456
   -4.1247   -5.3690    9.3413 H   0  0  0  0  0  0  0  0  0  0  0  0  # atno 2472 bound_to 2467
    2.5893   -9.2569    5.3252 H   0  0  0  0  0  0  0  0  0  0  0  0  # atno 2515 bound_to 2510
   -2.5012  -18.0187   13.6820 H   0  0  0  0  0  0  0  0  0  0  0  0  # atno 3721 bound_to 3712
   -5.0696  -22.9874   10.0646 H   0  0  0  0  0  0  0  0  0  0  0  0  # atno 3767 bound_to 3762
    3.0894  -20.7093    8.9202 H   0  0  0  0  0  0  0  0  0  0  0  0  # atno 3841 bound_to 3832
    4.9109   -9.2377    4.8599 LP  0  0  0  0  0  0  0  0  0  0  0  0  # atno 4297 bound_to 1298
    3.6876  -10.2109    4.3876 LP  0  0  0  0  0  0  0  0  0  0  0  0  # atno 4298 bound_to 1298
    1.4829   -9.2056    8.4010 LP  0  0  0  0  0  0  0  0  0  0  0  0  # atno 4299 bound_to 2456
    1.8931   -8.0181    7.3579 LP  0  0  0  0  0  0  0  0  0  0  0  0  # atno 4300 bound_to 2456
    2.0316   -7.8444    5.9248 LP  0  0  0  0  0  0  0  0  0  0  0  0  # atno 4301 bound_to 2510
    2.6757   -7.8974    4.4252 LP  0  0  0  0  0  0  0  0  0  0  0  0  # atno 4302 bound_to 2510
   -3.1673  -17.1058   14.8225 LP  0  0  0  0  0  0  0  0  0  0  0  0  # atno 4306 bound_to 3712
   -3.4727  -16.8176   13.2445 LP  0  0  0  0  0  0  0  0  0  0  0  0  # atno 4307 bound_to 3712
    1.5859  -20.6406    9.4779 LP  0  0  0  0  0  0  0  0  0  0  0  0  # atno 4314 bound_to 3832
    2.0747  -19.6423    8.2815 LP  0  0  0  0  0  0  0  0  0  0  0  0  # atno 4315 bound_to 3832
   -5.1494  -21.9147   11.2933 LP  0  0  0  0  0  0  0  0  0  0  0  0  # atno 4318 bound_to 3762
   -3.9085  -22.9731   11.2128 LP  0  0  0  0  0  0  0  0  0  0  0  0  # atno 4319 bound_to 3762
   -5.5098   -5.2139    8.4906 LP  0  0  0  0  0  0  0  0  0  0  0  0  # atno 4320 bound_to 2467
   -4.0824   -4.8107    7.8074 LP  0  0  0  0  0  0  0  0  0  0  0  0  # atno 4321 bound_to 2467

> <Gold.Score>
     Score     S(PLP)   S(hbond)     S(cho)   S(metal)  DE(clash)   DE(tors)     intcor
     42.64     -38.32       2.00       0.00       0.00       0.75       0.68       0.44

> <Gold.PLP.Fitness>
42.6410

> <Gold.PLP.PLP>
-38.3161

> <Gold.PLP.part.hbond>
-2.0000

> <Gold.PLP.part.metal>
0.0000

> <Gold.PLP.part.buried>
2.1881

> <Gold.PLP.part.nonpolar>
-39.8175

> <Gold.PLP.part.repulsive>
0.0908

> <Gold.PLP.ligand.clash>
0.7502

> <Gold.PLP.ligand.torsion>
0.6837

> <Gold.PLP.Chemscore.Hbond>
2.0000

> <Gold.PLP.Chemscore.CHOScore>
0.0000

> <Gold.PLP.Chemscore.Metal>
0.0000

> <Gold.Chemscore.Hbonds>
donor molecule, donor type, donor heavy atom, donor atom, acceptor molecule, acceptor atom, score
      L1  H     5    38       P1  1227  2.00

> <Gold.PLP.Chemscore.Internal.Correction>
0.4425

