#       Name:                EN300-312564_i001
#       Creating user name   fsindt
#       Creation time:       Mon Feb 27 20:44:44 2023


#       File generated by GOLD software.
#

@<TRIPOS>MOLECULE
EN300-312564_i001|amine_3|mol2|696|dock13
    38    38     1
SMALL
USER_CHARGES


@<TRIPOS>ATOM
      1 C1          -2.1135 -22.0937  16.2073 C.3            1 <1>                0.0000
      2 C2          -1.0331 -21.2796  15.4925 C.3            1 <1>                0.0000
      3 C3          -1.4614 -21.0227  14.0462 C.3            1 <1>                0.0000
      4 C4          -1.5446 -22.3587  13.2784 C.3            1 <1>                0.0000
      5 N5          -2.9367 -22.8181  13.1840 N.4            1 <1>                1.0000
      6 C6          -0.9924 -21.9887  11.8764 C.3            1 <1>                0.0000
      7 C7           0.1024 -20.9536  12.2365 C.3            1 <1>                0.0000
      8 N8          -0.4568 -20.1909  13.3676 N.am           1 <1>                0.0000
      9 C9          -0.1056 -18.9385  13.7206 C.2            1 <1>                0.0000
     10 O10         -0.5683 -18.4386  14.7268 O.2            1 <1>                0.0000
     11 O11          0.7578 -18.2414  12.9583 O.3            1 <1>                0.0000
     12 C12          1.3358 -17.0446  13.5433 C.3            1 <1>                0.0000
     13 C13          2.4061 -16.4839  12.6047 C.3            1 <1>                0.0000
     14 C14          0.2396 -15.9976  13.7500 C.3            1 <1>                0.0000
     15 C15          1.9706 -17.3915  14.8914 C.3            1 <1>                0.0000
     16 H16         -1.7797 -22.3328  17.2170 H              1 <1>                0.0000
     17 H17         -3.0336 -21.5115  16.2572 H              1 <1>                0.0000
     18 H18         -2.2968 -23.0165  15.6570 H              1 <1>                0.0000
     19 H19         -0.8964 -20.3276  16.0055 H              1 <1>                0.0000
     20 H20         -0.0951 -21.8346  15.5005 H              1 <1>                0.0000
     21 H21         -2.4308 -20.5247  14.0297 H              1 <1>                0.0000
     22 H22         -0.9213 -23.1162  13.7537 H              1 <1>                0.0000
     23 H23         -0.5597 -22.8598  11.3845 H              1 <1>                0.0000
     24 H24         -1.7681 -21.5377  11.2575 H              1 <1>                0.0000
     25 H25          1.0194 -21.4602  12.5371 H              1 <1>                0.0000
     26 H26          0.2928 -20.2929  11.3907 H              1 <1>                0.0000
     27 H27          1.9539 -16.2369  11.6442 H              1 <1>                0.0000
     28 H28          2.8400 -15.5857  13.0438 H              1 <1>                0.0000
     29 H29          3.1871 -17.2299  12.4574 H              1 <1>                0.0000
     30 H30         -0.5229 -16.3970  14.4187 H              1 <1>                0.0000
     31 H31          0.6735 -15.0992  14.1892 H              1 <1>                0.0000
     32 H32         -0.2127 -15.7505  12.7896 H              1 <1>                0.0000
     33 H33          2.7516 -18.1375  14.7442 H              1 <1>                0.0000
     34 H34          2.4045 -16.4931  15.3305 H              1 <1>                0.0000
     35 H35          1.2081 -17.7910  15.5601 H              1 <1>                0.0000
     36 H36         -2.9535 -23.8222  13.0851 H              1 <1>                0.0000
     37 H37         -3.4353 -22.5542  14.0206 H              1 <1>                0.0000
     38 H38         -3.3773 -22.3937  12.3818 H              1 <1>                0.0000
@<TRIPOS>BOND
    1    1    2 1     
    2    1   16 1     
    3    1   17 1     
    4    1   18 1     
    5    2    3 1     
    6    2   19 1     
    7    2   20 1     
    8    3    4 1     
    9    3    8 1     
   10    3   21 1     
   11    4    5 1     
   12    4    6 1     
   13    4   22 1     
   14    5   36 1     
   15    5   37 1     
   16    5   38 1     
   17    6    7 1     
   18    6   23 1     
   19    6   24 1     
   20    7    8 1     
   21    7   25 1     
   22    7   26 1     
   23    8    9 am    
   24    9   10 2     
   25    9   11 1     
   26   11   12 1     
   27   12   13 1     
   28   12   14 1     
   29   12   15 1     
   30   13   27 1     
   31   13   28 1     
   32   13   29 1     
   33   14   30 1     
   34   14   31 1     
   35   14   32 1     
   36   15   33 1     
   37   15   34 1     
   38   15   35 1     
@<TRIPOS>SUBSTRUCTURE
      1 ****           1
@<TRIPOS>SET
DONOR_HYDROGENS      STATIC     ATOMS    <user>   **** ""
3 36 37 38
ATOM$RED        STATIC     ATOMS    COLORGROUP SYSTEM
3 36 37 38
@<TRIPOS>COMMENT
> <Gold.Version>
2022.2.0

> <Gold.Id.Protein>
3pbl|protein|mol2

> <Gold.Protein.RotatedTorsions>
[ 1303 1298 1297 1294 ] final  111.18 input  179.99 | X-H torsion
[ 2461 2456 2455 2452 ] final -153.44 input   30.03 | X-H torsion
[ 2515 2510 2509 2506 ] final   36.63 input  -89.99 | X-H torsion
[ 3721 3712 3711 3710 ] final    3.81 input -179.91 | X-H torsion
[ 3841 3832 3831 3830 ] final  -67.97 input -179.91 | X-H torsion
[ 3767 3762 3761 3758 ] final   15.42 input  -89.99 | X-H torsion
[ 2472 2467 2466 2463 ] final   24.41 input  -89.97 | X-H torsion

> <Gold.Protein.ActiveResidues>
 VAL82   VAL86   LEU89   PHE106  VAL107  ASP110  VAL111  MET112  CYS114  THR115 
 CYS181  SER182  ILE183  PHE188  VAL189  ILE190  SER192  SER193  SER196  TRP342 
 PHE345  PHE346  HIS349  VAL350  TYR365  THR369  GLY372  TYR373 

> <Gold.Protein.RotatedAtoms>
    4.6601   -9.8898    4.9394 H   0  0  0  0  0  0  0  0  0  0  0  0  # atno 1303 bound_to 1298
    1.0302   -9.2888    8.3261 H   0  0  0  0  0  0  0  0  0  0  0  0  # atno 2461 bound_to 2456
   -4.0856   -4.8110    7.8051 H   0  0  0  0  0  0  0  0  0  0  0  0  # atno 2472 bound_to 2467
    2.2876   -7.4106    5.0968 H   0  0  0  0  0  0  0  0  0  0  0  0  # atno 2515 bound_to 2510
   -2.4798  -17.9773   14.1890 H   0  0  0  0  0  0  0  0  0  0  0  0  # atno 3721 bound_to 3712
   -5.1639  -22.9007   10.0783 H   0  0  0  0  0  0  0  0  0  0  0  0  # atno 3767 bound_to 3762
    1.6593  -19.7447    8.9421 H   0  0  0  0  0  0  0  0  0  0  0  0  # atno 3841 bound_to 3832
    3.3498   -9.7523    3.9748 LP  0  0  0  0  0  0  0  0  0  0  0  0  # atno 4297 bound_to 1298
    4.3520   -8.4790    4.1772 LP  0  0  0  0  0  0  0  0  0  0  0  0  # atno 4298 bound_to 1298
    2.1241   -8.2614    7.6816 LP  0  0  0  0  0  0  0  0  0  0  0  0  # atno 4299 bound_to 2456
    0.5834   -8.2582    7.1405 LP  0  0  0  0  0  0  0  0  0  0  0  0  # atno 4300 bound_to 2456
    2.8309   -8.8471    4.5427 LP  0  0  0  0  0  0  0  0  0  0  0  0  # atno 4301 bound_to 2510
    2.1783   -8.7418    6.0358 LP  0  0  0  0  0  0  0  0  0  0  0  0  # atno 4302 bound_to 2510
   -3.4195  -16.7147   14.5061 LP  0  0  0  0  0  0  0  0  0  0  0  0  # atno 4306 bound_to 3712
   -3.2451  -17.2565   12.9755 LP  0  0  0  0  0  0  0  0  0  0  0  0  # atno 4307 bound_to 3712
    3.0150  -20.2766    8.2672 LP  0  0  0  0  0  0  0  0  0  0  0  0  # atno 4314 bound_to 3832
    2.2976  -21.1206    9.4670 LP  0  0  0  0  0  0  0  0  0  0  0  0  # atno 4315 bound_to 3832
   -5.0540  -21.9202   11.3796 LP  0  0  0  0  0  0  0  0  0  0  0  0  # atno 4318 bound_to 3762
   -3.9097  -23.0543   11.1129 LP  0  0  0  0  0  0  0  0  0  0  0  0  # atno 4319 bound_to 3762
   -4.1213   -5.3673    9.3399 LP  0  0  0  0  0  0  0  0  0  0  0  0  # atno 4320 bound_to 2467
   -5.5099   -5.2152    8.4940 LP  0  0  0  0  0  0  0  0  0  0  0  0  # atno 4321 bound_to 2467

> <Gold.Score>
     Score     S(PLP)   S(hbond)     S(cho)   S(metal)  DE(clash)   DE(tors)     intcor
     38.83     -32.99       1.95       0.00       0.00       0.00       0.22       0.44

> <Gold.PLP.Fitness>
38.8334

> <Gold.PLP.PLP>
-32.9927

> <Gold.PLP.part.hbond>
-2.0000

> <Gold.PLP.part.metal>
0.0000

> <Gold.PLP.part.buried>
-3.0831

> <Gold.PLP.part.nonpolar>
-28.1283

> <Gold.PLP.part.repulsive>
0.0818

> <Gold.PLP.ligand.clash>
0.0000

> <Gold.PLP.ligand.torsion>
0.2224

> <Gold.PLP.Chemscore.Hbond>
1.9500

> <Gold.PLP.Chemscore.CHOScore>
0.0000

> <Gold.PLP.Chemscore.Metal>
0.0000

> <Gold.Chemscore.Hbonds>
donor molecule, donor type, donor heavy atom, donor atom, acceptor molecule, acceptor atom, score
      L1  H     5    38       P1  3762  0.95
      P1  H  3712  3721       L1    10  1.00

> <Gold.PLP.Chemscore.Internal.Correction>
0.4354

