#       Name:                EN300-312564_i001
#       Creating user name   fsindt
#       Creation time:       Mon Feb 27 20:44:51 2023


#       File generated by GOLD software.
#

@<TRIPOS>MOLECULE
EN300-312564_i001|amine_3|mol2|696|dock19
    38    38     1
SMALL
USER_CHARGES


@<TRIPOS>ATOM
      1 C1          -0.3237 -21.2219  11.3771 C.3            1 <1>                0.0000
      2 C2           0.4170 -21.1327  12.7128 C.3            1 <1>                0.0000
      3 C3           0.2287 -19.7358  13.3081 C.3            1 <1>                0.0000
      4 C4           1.2093 -18.7460  12.6446 C.3            1 <1>                0.0000
      5 N5           0.5295 -17.9564  11.6090 N.4            1 <1>                1.0000
      6 C6           1.6438 -17.8415  13.8279 C.3            1 <1>                0.0000
      7 C7           1.6739 -18.8547  14.9993 C.3            1 <1>                0.0000
      8 N8           0.5375 -19.7590  14.7454 N.am           1 <1>                0.0000
      9 C9          -0.1110 -20.4861  15.6765 C.2            1 <1>                0.0000
     10 O10         -0.9785 -21.2680  15.3412 O.2            1 <1>                0.0000
     11 O11          0.2022 -20.3459  16.9785 O.3            1 <1>                0.0000
     12 C12         -0.7226 -20.9129  17.9437 C.3            1 <1>                0.0000
     13 C13         -0.2899 -20.5185  19.3572 C.3            1 <1>                0.0000
     14 C14         -2.1312 -20.3801  17.6742 C.3            1 <1>                0.0000
     15 C15         -0.7210 -22.4376  17.8166 C.3            1 <1>                0.0000
     16 H16         -0.1358 -22.1942  10.9217 H              1 <1>                0.0000
     17 H17         -1.3937 -21.1007  11.5461 H              1 <1>                0.0000
     18 H18          0.0305 -20.4344  10.7119 H              1 <1>                0.0000
     19 H19          0.0169 -21.8777  13.4007 H              1 <1>                0.0000
     20 H20          1.4788 -21.3192  12.5526 H              1 <1>                0.0000
     21 H21         -0.7971 -19.4018  13.1524 H              1 <1>                0.0000
     22 H22          2.0655 -19.2743  12.2249 H              1 <1>                0.0000
     23 H23          2.6324 -17.4172  13.6529 H              1 <1>                0.0000
     24 H24          0.9099 -17.0561  14.0094 H              1 <1>                0.0000
     25 H25          2.6106 -19.4121  14.9948 H              1 <1>                0.0000
     26 H26          1.5430 -18.3389  15.9506 H              1 <1>                0.0000
     27 H27         -0.2909 -19.4323  19.4477 H              1 <1>                0.0000
     28 H28         -0.9841 -20.9441  20.0817 H              1 <1>                0.0000
     29 H29          0.7136 -20.8981  19.5492 H              1 <1>                0.0000
     30 H30         -2.4395 -20.6611  16.6671 H              1 <1>                0.0000
     31 H31         -2.8254 -20.8058  18.3987 H              1 <1>                0.0000
     32 H32         -2.1323 -19.2938  17.7646 H              1 <1>                0.0000
     33 H33          0.2825 -22.8172  18.0086 H              1 <1>                0.0000
     34 H34         -1.4153 -22.8632  18.5412 H              1 <1>                0.0000
     35 H35         -1.0293 -22.7187  16.8095 H              1 <1>                0.0000
     36 H36          1.1596 -17.8017  10.8363 H              1 <1>                0.0000
     37 H37         -0.2843 -18.4569  11.2845 H              1 <1>                0.0000
     38 H38          0.2463 -17.0683  11.9951 H              1 <1>                0.0000
@<TRIPOS>BOND
    1    1    2 1     
    2    1   16 1     
    3    1   17 1     
    4    1   18 1     
    5    2    3 1     
    6    2   19 1     
    7    2   20 1     
    8    3    4 1     
    9    3    8 1     
   10    3   21 1     
   11    4    5 1     
   12    4    6 1     
   13    4   22 1     
   14    5   36 1     
   15    5   37 1     
   16    5   38 1     
   17    6    7 1     
   18    6   23 1     
   19    6   24 1     
   20    7    8 1     
   21    7   25 1     
   22    7   26 1     
   23    8    9 am    
   24    9   10 2     
   25    9   11 1     
   26   11   12 1     
   27   12   13 1     
   28   12   14 1     
   29   12   15 1     
   30   13   27 1     
   31   13   28 1     
   32   13   29 1     
   33   14   30 1     
   34   14   31 1     
   35   14   32 1     
   36   15   33 1     
   37   15   34 1     
   38   15   35 1     
@<TRIPOS>SUBSTRUCTURE
      1 ****           1
@<TRIPOS>SET
DONOR_HYDROGENS      STATIC     ATOMS    <user>   **** ""
3 36 37 38
ATOM$RED        STATIC     ATOMS    COLORGROUP SYSTEM
3 36 37 38
@<TRIPOS>COMMENT
> <Gold.Version>
2022.2.0

> <Gold.Id.Protein>
3pbl|protein|mol2

> <Gold.Protein.RotatedTorsions>
[ 1303 1298 1297 1294 ] final  -56.30 input  179.99 | X-H torsion
[ 2461 2456 2455 2452 ] final   65.72 input   30.03 | X-H torsion
[ 2515 2510 2509 2506 ] final -119.47 input  -89.99 | X-H torsion
[ 3721 3712 3711 3710 ] final   65.91 input -179.91 | X-H torsion
[ 3841 3832 3831 3830 ] final  173.88 input -179.91 | X-H torsion
[ 3767 3762 3761 3758 ] final -112.42 input  -89.99 | X-H torsion
[ 2472 2467 2466 2463 ] final  176.26 input  -89.97 | X-H torsion

> <Gold.Protein.ActiveResidues>
 VAL82   VAL86   LEU89   PHE106  VAL107  ASP110  VAL111  MET112  CYS114  THR115 
 CYS181  SER182  ILE183  PHE188  VAL189  ILE190  SER192  SER193  SER196  TRP342 
 PHE345  PHE346  HIS349  VAL350  TYR365  THR369  GLY372  TYR373 

> <Gold.Protein.RotatedAtoms>
    3.4684   -9.0291    3.7772 H   0  0  0  0  0  0  0  0  0  0  0  0  # atno 1303 bound_to 1298
    1.9751   -8.0719    7.4404 H   0  0  0  0  0  0  0  0  0  0  0  0  # atno 2461 bound_to 2456
   -5.3795   -5.3729    8.9692 H   0  0  0  0  0  0  0  0  0  0  0  0  # atno 2472 bound_to 2467
    2.7173   -9.2009    4.9933 H   0  0  0  0  0  0  0  0  0  0  0  0  # atno 2515 bound_to 2510
   -2.6240  -17.8614   13.3148 H   0  0  0  0  0  0  0  0  0  0  0  0  # atno 3721 bound_to 3712
   -4.9516  -21.9382   11.4559 H   0  0  0  0  0  0  0  0  0  0  0  0  # atno 3767 bound_to 3762
    3.0071  -20.1210    8.4444 H   0  0  0  0  0  0  0  0  0  0  0  0  # atno 3841 bound_to 3832
    4.8349   -8.8277    4.6480 LP  0  0  0  0  0  0  0  0  0  0  0  0  # atno 4297 bound_to 1298
    4.0592  -10.2646    4.6666 LP  0  0  0  0  0  0  0  0  0  0  0  0  # atno 4298 bound_to 1298
    0.4021   -8.4917    7.3105 LP  0  0  0  0  0  0  0  0  0  0  0  0  # atno 4299 bound_to 2456
    1.3608   -9.2444    8.3972 LP  0  0  0  0  0  0  0  0  0  0  0  0  # atno 4300 bound_to 2456
    2.0421   -8.1745    6.0686 LP  0  0  0  0  0  0  0  0  0  0  0  0  # atno 4301 bound_to 2510
    2.5372   -7.6233    4.6134 LP  0  0  0  0  0  0  0  0  0  0  0  0  # atno 4302 bound_to 2510
   -2.9363  -17.5049   14.8488 LP  0  0  0  0  0  0  0  0  0  0  0  0  # atno 4306 bound_to 3712
   -3.5620  -16.6001   13.6420 LP  0  0  0  0  0  0  0  0  0  0  0  0  # atno 4307 bound_to 3712
    2.2807  -21.1159    9.4733 LP  0  0  0  0  0  0  0  0  0  0  0  0  # atno 4314 bound_to 3832
    1.4749  -19.8466    8.8358 LP  0  0  0  0  0  0  0  0  0  0  0  0  # atno 4315 bound_to 3832
   -3.9258  -23.1274   11.0082 LP  0  0  0  0  0  0  0  0  0  0  0  0  # atno 4318 bound_to 3762
   -5.2501  -22.8092   10.1072 LP  0  0  0  0  0  0  0  0  0  0  0  0  # atno 4319 bound_to 3762
   -4.5820   -4.8123    7.6593 LP  0  0  0  0  0  0  0  0  0  0  0  0  # atno 4320 bound_to 2467
   -3.7555   -5.2084    9.0107 LP  0  0  0  0  0  0  0  0  0  0  0  0  # atno 4321 bound_to 2467

> <Gold.Score>
     Score     S(PLP)   S(hbond)     S(cho)   S(metal)  DE(clash)   DE(tors)     intcor
     36.12     -30.48       2.00       0.00       0.00       0.02       0.39       0.42

> <Gold.PLP.Fitness>
36.1160

> <Gold.PLP.PLP>
-30.4833

> <Gold.PLP.part.hbond>
-1.0000

> <Gold.PLP.part.metal>
0.0000

> <Gold.PLP.part.buried>
-3.8078

> <Gold.PLP.part.nonpolar>
-25.6750

> <Gold.PLP.part.repulsive>
0.0979

> <Gold.PLP.ligand.clash>
0.0180

> <Gold.PLP.ligand.torsion>
0.3865

> <Gold.PLP.Chemscore.Hbond>
2.0000

> <Gold.PLP.Chemscore.CHOScore>
0.0000

> <Gold.PLP.Chemscore.Metal>
0.0000

> <Gold.Chemscore.Hbonds>
donor molecule, donor type, donor heavy atom, donor atom, acceptor molecule, acceptor atom, score
      L1  H     5    36       P1  1227  2.00

> <Gold.PLP.Chemscore.Internal.Correction>
0.4239

