#       Name:                EN300-312564_i001
#       Creating user name   fsindt
#       Creation time:       Mon Feb 27 20:44:42 2023


#       File generated by GOLD software.
#

@<TRIPOS>MOLECULE
EN300-312564_i001|amine_3|mol2|696|dock11
    38    38     1
SMALL
USER_CHARGES


@<TRIPOS>ATOM
      1 C1          -1.4403 -11.0999  11.1297 C.3            1 <1>                0.0000
      2 C2          -1.3138 -12.5561  10.6776 C.3            1 <1>                0.0000
      3 C3           0.0923 -12.7982  10.1249 C.3            1 <1>                0.0000
      4 C4           0.3223 -11.9237   8.8744 C.3            1 <1>                0.0000
      5 N5           1.0996 -10.7245   9.2145 N.4            1 <1>                1.0000
      6 C6           1.1360 -12.8589   7.9413 C.3            1 <1>                0.0000
      7 C7           0.5092 -14.2390   8.2608 C.3            1 <1>                0.0000
      8 N8           0.2309 -14.2012   9.7081 N.am           1 <1>                0.0000
      9 C9           0.1220 -15.2750  10.5154 C.2            1 <1>                0.0000
     10 O10          0.3445 -16.3874  10.0801 O.2            1 <1>                0.0000
     11 O11         -0.2334 -15.1149  11.8041 O.3            1 <1>                0.0000
     12 C12          0.2815 -16.0839  12.7551 C.3            1 <1>                0.0000
     13 C13         -0.0220 -15.6124  14.1786 C.3            1 <1>                0.0000
     14 C14         -0.3858 -17.4394  12.5137 C.3            1 <1>                0.0000
     15 C15          1.7946 -16.2209  12.5748 C.3            1 <1>                0.0000
     16 H16         -2.4608 -10.9101  11.4623 H              1 <1>                0.0000
     17 H17         -0.7496 -10.9135  11.9521 H              1 <1>                0.0000
     18 H18         -1.2005 -10.4387  10.2970 H              1 <1>                0.0000
     19 H19         -1.4892 -13.2168  11.5267 H              1 <1>                0.0000
     20 H20         -2.0499 -12.7604   9.9002 H              1 <1>                0.0000
     21 H21          0.8356 -12.5599  10.8857 H              1 <1>                0.0000
     22 H22         -0.6276 -11.6487   8.4160 H              1 <1>                0.0000
     23 H23          0.9852 -12.5942   6.8948 H              1 <1>                0.0000
     24 H24          2.1952 -12.8420   8.1982 H              1 <1>                0.0000
     25 H25         -0.4156 -14.3747   7.7001 H              1 <1>                0.0000
     26 H26          1.2139 -15.0382   8.0308 H              1 <1>                0.0000
     27 H27         -1.0999 -15.5146  14.3070 H              1 <1>                0.0000
     28 H28          0.3645 -16.3397  14.8924 H              1 <1>                0.0000
     29 H29          0.4534 -14.6467  14.3505 H              1 <1>                0.0000
     30 H30         -0.1695 -17.7754  11.4996 H              1 <1>                0.0000
     31 H31          0.0008 -18.1668  13.2275 H              1 <1>                0.0000
     32 H32         -1.4637 -17.3418  12.6420 H              1 <1>                0.0000
     33 H33          2.2700 -15.2552  12.7467 H              1 <1>                0.0000
     34 H34          2.1811 -16.9484  13.2887 H              1 <1>                0.0000
     35 H35          2.0108 -16.5569  11.5606 H              1 <1>                0.0000
     36 H36          0.8358 -10.4022  10.1336 H              1 <1>                0.0000
     37 H37          2.0836 -10.9480   9.2061 H              1 <1>                0.0000
     38 H38          0.9135  -9.9998   8.5377 H              1 <1>                0.0000
@<TRIPOS>BOND
    1    1    2 1     
    2    1   16 1     
    3    1   17 1     
    4    1   18 1     
    5    2    3 1     
    6    2   19 1     
    7    2   20 1     
    8    3    4 1     
    9    3    8 1     
   10    3   21 1     
   11    4    5 1     
   12    4    6 1     
   13    4   22 1     
   14    5   36 1     
   15    5   37 1     
   16    5   38 1     
   17    6    7 1     
   18    6   23 1     
   19    6   24 1     
   20    7    8 1     
   21    7   25 1     
   22    7   26 1     
   23    8    9 am    
   24    9   10 2     
   25    9   11 1     
   26   11   12 1     
   27   12   13 1     
   28   12   14 1     
   29   12   15 1     
   30   13   27 1     
   31   13   28 1     
   32   13   29 1     
   33   14   30 1     
   34   14   31 1     
   35   14   32 1     
   36   15   33 1     
   37   15   34 1     
   38   15   35 1     
@<TRIPOS>SUBSTRUCTURE
      1 ****           1
@<TRIPOS>SET
DONOR_HYDROGENS      STATIC     ATOMS    <user>   **** ""
3 36 37 38
ATOM$RED        STATIC     ATOMS    COLORGROUP SYSTEM
3 36 37 38
@<TRIPOS>COMMENT
> <Gold.Version>
2022.2.0

> <Gold.Id.Protein>
3pbl|protein|mol2

> <Gold.Protein.RotatedTorsions>
[ 1303 1298 1297 1294 ] final -107.57 input  179.99 | X-H torsion
[ 2461 2456 2455 2452 ] final   72.31 input   30.03 | X-H torsion
[ 2515 2510 2509 2506 ] final  -62.10 input  -89.99 | X-H torsion
[ 3721 3712 3711 3710 ] final   -7.85 input -179.91 | X-H torsion
[ 3841 3832 3831 3830 ] final  -53.68 input -179.91 | X-H torsion
[ 3767 3762 3761 3758 ] final    9.52 input  -89.99 | X-H torsion
[ 2472 2467 2466 2463 ] final -149.09 input  -89.97 | X-H torsion

> <Gold.Protein.ActiveResidues>
 VAL82   VAL86   LEU89   PHE106  VAL107  ASP110  VAL111  MET112  CYS114  THR115 
 CYS181  SER182  ILE183  PHE188  VAL189  ILE190  SER192  SER193  SER196  TRP342 
 PHE345  PHE346  HIS349  VAL350  TYR365  THR369  GLY372  TYR373 

> <Gold.Protein.RotatedAtoms>
    4.0619   -8.5111    3.9886 H   0  0  0  0  0  0  0  0  0  0  0  0  # atno 1303 bound_to 1298
    2.0338   -8.1253    7.5142 H   0  0  0  0  0  0  0  0  0  0  0  0  # atno 2461 bound_to 2456
   -4.9650   -5.4602    9.3379 H   0  0  0  0  0  0  0  0  0  0  0  0  # atno 2472 bound_to 2467
    2.8266   -8.5331    4.3928 H   0  0  0  0  0  0  0  0  0  0  0  0  # atno 2515 bound_to 2510
   -2.5073  -17.9048   14.3471 H   0  0  0  0  0  0  0  0  0  0  0  0  # atno 3721 bound_to 3712
   -5.2293  -22.8320   10.0982 H   0  0  0  0  0  0  0  0  0  0  0  0  # atno 3767 bound_to 3762
    1.5867  -19.8714    9.1004 H   0  0  0  0  0  0  0  0  0  0  0  0  # atno 3841 bound_to 3832
    4.8335   -9.5887    4.9424 LP  0  0  0  0  0  0  0  0  0  0  0  0  # atno 4297 bound_to 1298
    3.4668  -10.0219    4.1607 LP  0  0  0  0  0  0  0  0  0  0  0  0  # atno 4298 bound_to 1298
    0.4483   -8.4147    7.2498 LP  0  0  0  0  0  0  0  0  0  0  0  0  # atno 4299 bound_to 2456
    1.2559   -9.2680    8.3841 LP  0  0  0  0  0  0  0  0  0  0  0  0  # atno 4300 bound_to 2456
    2.3094   -9.0148    5.8646 LP  0  0  0  0  0  0  0  0  0  0  0  0  # atno 4301 bound_to 2510
    2.1605   -7.4511    5.4182 LP  0  0  0  0  0  0  0  0  0  0  0  0  # atno 4302 bound_to 2510
   -3.4828  -16.6296   14.3429 LP  0  0  0  0  0  0  0  0  0  0  0  0  # atno 4306 bound_to 3712
   -3.1502  -17.4253   12.9562 LP  0  0  0  0  0  0  0  0  0  0  0  0  # atno 4307 bound_to 3712
    2.8856  -20.0945    8.1843 LP  0  0  0  0  0  0  0  0  0  0  0  0  # atno 4314 bound_to 3832
    2.5109  -21.1563    9.3670 LP  0  0  0  0  0  0  0  0  0  0  0  0  # atno 4315 bound_to 3832
   -4.9778  -21.9330   11.4381 LP  0  0  0  0  0  0  0  0  0  0  0  0  # atno 4318 bound_to 3762
   -3.9205  -23.1102   11.0344 LP  0  0  0  0  0  0  0  0  0  0  0  0  # atno 4319 bound_to 3762
   -5.1135   -4.9226    7.8031 LP  0  0  0  0  0  0  0  0  0  0  0  0  # atno 4320 bound_to 2467
   -3.6385   -5.0108    8.4983 LP  0  0  0  0  0  0  0  0  0  0  0  0  # atno 4321 bound_to 2467

> <Gold.Score>
     Score     S(PLP)   S(hbond)     S(cho)   S(metal)  DE(clash)   DE(tors)     intcor
     40.72     -38.21       1.00       0.00       0.00       0.00       0.46       0.44

> <Gold.PLP.Fitness>
40.7206

> <Gold.PLP.PLP>
-38.2064

> <Gold.PLP.part.hbond>
-1.0000

> <Gold.PLP.part.metal>
0.0000

> <Gold.PLP.part.buried>
-2.4619

> <Gold.PLP.part.nonpolar>
-39.0204

> <Gold.PLP.part.repulsive>
3.4354

> <Gold.PLP.ligand.clash>
0.0017

> <Gold.PLP.ligand.torsion>
0.4597

> <Gold.PLP.Chemscore.Hbond>
1.0000

> <Gold.PLP.Chemscore.CHOScore>
0.0000

> <Gold.PLP.Chemscore.Metal>
0.0000

> <Gold.Chemscore.Hbonds>
donor molecule, donor type, donor heavy atom, donor atom, acceptor molecule, acceptor atom, score
      L1  H     5    38       P1  2456  1.00

> <Gold.PLP.Chemscore.Internal.Correction>
0.4354

