#       Name:                EN300-312564_i001
#       Creating user name   fsindt
#       Creation time:       Mon Feb 27 20:44:32 2023


#       File generated by GOLD software.
#

@<TRIPOS>MOLECULE
EN300-312564_i001
    38    38     1
SMALL
USER_CHARGES


@<TRIPOS>ATOM
      1 C1           3.0530   2.2776  -0.2420 C.3            1 <1>                0.0000
      2 C2           1.7835   1.5224  -0.6406 C.3            1 <1>                0.0000
      3 C3           1.6635   0.2483   0.1981 C.3            1 <1>                0.0000
      4 C4           2.8147  -0.7190  -0.1493 C.3            1 <1>                0.0000
      5 N5           3.8819  -0.6395   0.8570 N.4            1 <1>                1.0000
      6 C6           2.1251  -2.1083  -0.1096 C.3            1 <1>                0.0000
      7 C7           0.7183  -1.7733  -0.6649 C.3            1 <1>                0.0000
      8 N8           0.4038  -0.4411  -0.1173 N.am           1 <1>                0.0000
      9 C9          -0.8335   0.0614   0.0645 C.2            1 <1>                0.0000
     10 O10         -0.9743   1.2081   0.4408 O.2            1 <1>                0.0000
     11 O11         -1.9135  -0.7074  -0.1707 O.3            1 <1>                0.0000
     12 C12         -3.2146  -0.1003   0.0462 C.3            1 <1>                0.0000
     13 C13         -3.3687   1.1162  -0.8688 C.3            1 <1>                0.0000
     14 C14         -4.3116  -1.1187  -0.2703 C.3            1 <1>                0.0000
     15 C15         -3.3343   0.3412   1.5062 C.3            1 <1>                0.0000
     16 H16          3.1732   3.1503  -0.8839 H              1 <1>                0.0000
     17 H17          2.9738   2.5987   0.7966 H              1 <1>                0.0000
     18 H18          3.9164   1.6219  -0.3547 H              1 <1>                0.0000
     19 H19          0.9138   2.1558  -0.4656 H              1 <1>                0.0000
     20 H20          1.8342   1.2586  -1.6969 H              1 <1>                0.0000
     21 H21          1.6966   0.4982   1.2585 H              1 <1>                0.0000
     22 H22          3.2080  -0.5090  -1.1440 H              1 <1>                0.0000
     23 H23          2.6408  -2.8191  -0.7552 H              1 <1>                0.0000
     24 H24          2.0626  -2.4845   0.9116 H              1 <1>                0.0000
     25 H25          0.7383  -1.7406  -1.7542 H              1 <1>                0.0000
     26 H26         -0.0104  -2.5069  -0.3199 H              1 <1>                0.0000
     27 H27         -3.2833   0.8017  -1.9089 H              1 <1>                0.0000
     28 H28         -4.3453   1.5719  -0.7060 H              1 <1>                0.0000
     29 H29         -2.5871   1.8417  -0.6433 H              1 <1>                0.0000
     30 H30         -4.2019  -1.9854   0.3816 H              1 <1>                0.0000
     31 H31         -5.2883  -0.6630  -0.1074 H              1 <1>                0.0000
     32 H32         -4.2263  -1.4333  -1.3104 H              1 <1>                0.0000
     33 H33         -2.5527   1.0667   1.7317 H              1 <1>                0.0000
     34 H34         -4.3110   0.7969   1.6690 H              1 <1>                0.0000
     35 H35         -3.2245  -0.5255   2.1581 H              1 <1>                0.0000
     36 H36          3.5101  -0.8870   1.7618 H              1 <1>                0.0000
     37 H37          4.6235  -1.2783   0.6119 H              1 <1>                0.0000
     38 H38          4.2451   0.3013   0.8885 H              1 <1>                0.0000
@<TRIPOS>BOND
    1    1    2 1     
    2    1   16 1     
    3    1   17 1     
    4    1   18 1     
    5    2    3 1     
    6    2   19 1     
    7    2   20 1     
    8    3    4 1     
    9    3    8 1     
   10    3   21 1     
   11    4    5 1     
   12    4    6 1     
   13    4   22 1     
   14    5   36 1     
   15    5   37 1     
   16    5   38 1     
   17    6    7 1     
   18    6   23 1     
   19    6   24 1     
   20    7    8 1     
   21    7   25 1     
   22    7   26 1     
   23    8    9 am    
   24    9   10 2     
   25    9   11 1     
   26   11   12 1     
   27   12   13 1     
   28   12   14 1     
   29   12   15 1     
   30   13   27 1     
   31   13   28 1     
   32   13   29 1     
   33   14   30 1     
   34   14   31 1     
   35   14   32 1     
   36   15   33 1     
   37   15   34 1     
   38   15   35 1     
@<TRIPOS>SUBSTRUCTURE
      1 ****           1
@<TRIPOS>SET
DONOR_HYDROGENS      STATIC     ATOMS    <user>   **** ""
3 36 37 38
ATOM$RED        STATIC     ATOMS    COLORGROUP SYSTEM
3 36 37 38
