#       Name:                EN300-312564_i001
#       Creating user name   fsindt
#       Creation time:       Mon Feb 27 20:44:53 2023


#       File generated by GOLD software.
#

@<TRIPOS>MOLECULE
EN300-312564_i001|amine_3|mol2|696|dock20
    38    38     1
SMALL
USER_CHARGES


@<TRIPOS>ATOM
      1 C1           0.0782 -15.4609  11.1893 C.3            1 <1>                0.0000
      2 C2          -0.0318 -14.0174  10.6942 C.3            1 <1>                0.0000
      3 C3          -0.1378 -14.0085   9.1678 C.3            1 <1>                0.0000
      4 C4           0.9761 -14.8862   8.5592 C.3            1 <1>                0.0000
      5 N5           0.4517 -16.2065   8.1853 N.4            1 <1>                1.0000
      6 C6           1.3991 -14.0864   7.2988 C.3            1 <1>                0.0000
      7 C7           1.2479 -12.6258   7.7920 C.3            1 <1>                0.0000
      8 N8           0.0570 -12.6422   8.6610 N.am           1 <1>                0.0000
      9 C9          -0.7238 -11.5807   8.9437 C.2            1 <1>                0.0000
     10 O10         -0.5214 -10.5147   8.3969 O.2            1 <1>                0.0000
     11 O11         -1.7282 -11.7016   9.8322 O.3            1 <1>                0.0000
     12 C12         -2.3110 -10.4721  10.3395 C.3            1 <1>                0.0000
     13 C13         -1.2039  -9.5745  10.8958 C.3            1 <1>                0.0000
     14 C14         -3.0351  -9.7450   9.2047 C.3            1 <1>                0.0000
     15 C15         -3.3080 -10.8016  11.4523 C.3            1 <1>                0.0000
     16 H16          0.2196 -15.4645  12.2700 H              1 <1>                0.0000
     17 H17         -0.8355 -16.0009  10.9407 H              1 <1>                0.0000
     18 H18          0.9286 -15.9457  10.7098 H              1 <1>                0.0000
     19 H19         -0.9199 -13.5529  11.1227 H              1 <1>                0.0000
     20 H20          0.8534 -13.4600  11.0001 H              1 <1>                0.0000
     21 H21         -1.1143 -14.3841   8.8620 H              1 <1>                0.0000
     22 H22          1.8105 -14.9867   9.2535 H              1 <1>                0.0000
     23 H23          2.4325 -14.3022   7.0277 H              1 <1>                0.0000
     24 H24          0.7276 -14.2885   6.4642 H              1 <1>                0.0000
     25 H25          2.1278 -12.3241   8.3600 H              1 <1>                0.0000
     26 H26          1.0919 -11.9544   6.9475 H              1 <1>                0.0000
     27 H27         -0.4936  -9.3399  10.1031 H              1 <1>                0.0000
     28 H28         -1.6414  -8.6517  11.2766 H              1 <1>                0.0000
     29 H29         -0.6881 -10.0926  11.7042 H              1 <1>                0.0000
     30 H30         -3.8239 -10.3844   8.8083 H              1 <1>                0.0000
     31 H31         -3.4727  -8.8221   9.5855 H              1 <1>                0.0000
     32 H32         -2.3248  -9.5104   8.4119 H              1 <1>                0.0000
     33 H33         -2.7921 -11.3197  12.2607 H              1 <1>                0.0000
     34 H34         -3.7455  -9.8787  11.8330 H              1 <1>                0.0000
     35 H35         -4.0967 -11.4411  11.0559 H              1 <1>                0.0000
     36 H36          1.1627 -16.9061   8.3370 H              1 <1>                0.0000
     37 H37         -0.3563 -16.4199   8.7508 H              1 <1>                0.0000
     38 H38          0.1883 -16.2002   7.2113 H              1 <1>                0.0000
@<TRIPOS>BOND
    1    1    2 1     
    2    1   16 1     
    3    1   17 1     
    4    1   18 1     
    5    2    3 1     
    6    2   19 1     
    7    2   20 1     
    8    3    4 1     
    9    3    8 1     
   10    3   21 1     
   11    4    5 1     
   12    4    6 1     
   13    4   22 1     
   14    5   36 1     
   15    5   37 1     
   16    5   38 1     
   17    6    7 1     
   18    6   23 1     
   19    6   24 1     
   20    7    8 1     
   21    7   25 1     
   22    7   26 1     
   23    8    9 am    
   24    9   10 2     
   25    9   11 1     
   26   11   12 1     
   27   12   13 1     
   28   12   14 1     
   29   12   15 1     
   30   13   27 1     
   31   13   28 1     
   32   13   29 1     
   33   14   30 1     
   34   14   31 1     
   35   14   32 1     
   36   15   33 1     
   37   15   34 1     
   38   15   35 1     
@<TRIPOS>SUBSTRUCTURE
      1 ****           1
@<TRIPOS>SET
DONOR_HYDROGENS      STATIC     ATOMS    <user>   **** ""
3 36 37 38
ATOM$RED        STATIC     ATOMS    COLORGROUP SYSTEM
3 36 37 38
@<TRIPOS>COMMENT
> <Gold.Version>
2022.2.0

> <Gold.Id.Protein>
3pbl|protein|mol2

> <Gold.Protein.RotatedTorsions>
[ 1303 1298 1297 1294 ] final   54.59 input  179.99 | X-H torsion
[ 2461 2456 2455 2452 ] final -133.37 input   30.03 | X-H torsion
[ 2515 2510 2509 2506 ] final  113.06 input  -89.99 | X-H torsion
[ 3721 3712 3711 3710 ] final   43.43 input -179.91 | X-H torsion
[ 3841 3832 3831 3830 ] final   22.88 input -179.91 | X-H torsion
[ 3767 3762 3761 3758 ] final   52.34 input  -89.99 | X-H torsion
[ 2472 2467 2466 2463 ] final  -13.76 input  -89.97 | X-H torsion

> <Gold.Protein.ActiveResidues>
 VAL82   VAL86   LEU89   PHE106  VAL107  ASP110  VAL111  MET112  CYS114  THR115 
 CYS181  SER182  ILE183  PHE188  VAL189  ILE190  SER192  SER193  SER196  TRP342 
 PHE345  PHE346  HIS349  VAL350  TYR365  THR369  GLY372  TYR373 

> <Gold.Protein.RotatedAtoms>
    3.9347  -10.2714    4.5834 H   0  0  0  0  0  0  0  0  0  0  0  0  # atno 1303 bound_to 1298
    0.7379   -9.2465    8.1818 H   0  0  0  0  0  0  0  0  0  0  0  0  # atno 2461 bound_to 2456
   -3.6943   -4.9338    8.2653 H   0  0  0  0  0  0  0  0  0  0  0  0  # atno 2472 bound_to 2467
    2.0322   -8.0575    6.0327 H   0  0  0  0  0  0  0  0  0  0  0  0  # atno 2515 bound_to 2510
   -2.5183  -18.0009   13.6038 H   0  0  0  0  0  0  0  0  0  0  0  0  # atno 3721 bound_to 3712
   -4.6757  -23.2388   10.1419 H   0  0  0  0  0  0  0  0  0  0  0  0  # atno 3767 bound_to 3762
    1.9773  -20.7236    9.6216 H   0  0  0  0  0  0  0  0  0  0  0  0  # atno 3841 bound_to 3832
    3.5477   -8.9021    3.7824 LP  0  0  0  0  0  0  0  0  0  0  0  0  # atno 4297 bound_to 1298
    4.8798   -8.9475    4.7257 LP  0  0  0  0  0  0  0  0  0  0  0  0  # atno 4298 bound_to 1298
    2.1593   -8.4863    7.9186 LP  0  0  0  0  0  0  0  0  0  0  0  0  # atno 4299 bound_to 2456
    0.8404   -8.0756    7.0478 LP  0  0  0  0  0  0  0  0  0  0  0  0  # atno 4300 bound_to 2456
    2.5870   -7.7064    4.5378 LP  0  0  0  0  0  0  0  0  0  0  0  0  # atno 4301 bound_to 2510
    2.6777   -9.2353    5.1043 LP  0  0  0  0  0  0  0  0  0  0  0  0  # atno 4302 bound_to 2510
   -3.1221  -17.1811   14.8452 LP  0  0  0  0  0  0  0  0  0  0  0  0  # atno 4306 bound_to 3712
   -3.4981  -16.7628   13.3121 LP  0  0  0  0  0  0  0  0  0  0  0  0  # atno 4307 bound_to 3712
    1.8184  -19.6456    8.4431 LP  0  0  0  0  0  0  0  0  0  0  0  0  # atno 4314 bound_to 3832
    3.1268  -20.6208    8.5061 LP  0  0  0  0  0  0  0  0  0  0  0  0  # atno 4315 bound_to 3832
   -5.4199  -22.0085   10.9162 LP  0  0  0  0  0  0  0  0  0  0  0  0  # atno 4318 bound_to 3762
   -4.0318  -22.6280   11.5127 LP  0  0  0  0  0  0  0  0  0  0  0  0  # atno 4319 bound_to 3762
   -4.7258   -5.4612    9.4160 LP  0  0  0  0  0  0  0  0  0  0  0  0  # atno 4320 bound_to 2467
   -5.2966   -4.9985    7.9577 LP  0  0  0  0  0  0  0  0  0  0  0  0  # atno 4321 bound_to 2467

> <Gold.Score>
     Score     S(PLP)   S(hbond)     S(cho)   S(metal)  DE(clash)   DE(tors)     intcor
     54.64     -46.25       2.86       0.00       0.00       0.00       0.30       0.42

> <Gold.PLP.Fitness>
54.6403

> <Gold.PLP.PLP>
-46.2502

> <Gold.PLP.part.hbond>
-2.0000

> <Gold.PLP.part.metal>
0.0000

> <Gold.PLP.part.buried>
-5.4332

> <Gold.PLP.part.nonpolar>
-39.8983

> <Gold.PLP.part.repulsive>
0.0193

> <Gold.PLP.ligand.clash>
0.0000

> <Gold.PLP.ligand.torsion>
0.3009

> <Gold.PLP.Chemscore.Hbond>
2.8560

> <Gold.PLP.Chemscore.CHOScore>
0.0000

> <Gold.PLP.Chemscore.Metal>
0.0000

> <Gold.Chemscore.Hbonds>
donor molecule, donor type, donor heavy atom, donor atom, acceptor molecule, acceptor atom, score
      L1  H     5    36       P1  1227  1.86
      P1  H  2456  2461       L1    10  1.00

> <Gold.PLP.Chemscore.Internal.Correction>
0.4239

