#       Name:                EN300-312564_i001
#       Creating user name   fsindt
#       Creation time:       Mon Feb 27 20:44:46 2023


#       File generated by GOLD software.
#

@<TRIPOS>MOLECULE
EN300-312564_i001|amine_3|mol2|696|dock14
    38    38     1
SMALL
USER_CHARGES


@<TRIPOS>ATOM
      1 C1           1.9087 -22.4803  14.0994 C.3            1 <1>                0.0000
      2 C2           0.6912 -22.1448  13.2358 C.3            1 <1>                0.0000
      3 C3           0.4426 -20.6354  13.2691 C.3            1 <1>                0.0000
      4 C4           1.5485 -19.9039  12.4796 C.3            1 <1>                0.0000
      5 N5           1.0767 -19.5447  11.1356 N.4            1 <1>                1.0000
      6 C6           1.8000 -18.6317  13.3314 C.3            1 <1>                0.0000
      7 C7           1.6026 -19.1754  14.7684 C.3            1 <1>                0.0000
      8 N8           0.5017 -20.1494  14.6555 N.am           1 <1>                0.0000
      9 C9          -0.3155 -20.5309  15.6571 C.2            1 <1>                0.0000
     10 O10         -1.1343 -21.4093  15.4720 O.2            1 <1>                0.0000
     11 O11         -0.2246 -19.9384  16.8627 O.3            1 <1>                0.0000
     12 C12         -0.8730 -20.6075  17.9764 C.3            1 <1>                0.0000
     13 C13         -0.3982 -22.0603  18.0450 C.3            1 <1>                0.0000
     14 C14         -0.5142 -19.8916  19.2801 C.3            1 <1>                0.0000
     15 C15         -2.3896 -20.5754  17.7776 C.3            1 <1>                0.0000
     16 H16          2.0465 -23.5611  14.1289 H              1 <1>                0.0000
     17 H17          2.7963 -22.0123  13.6736 H              1 <1>                0.0000
     18 H18          1.7508 -22.1064  15.1111 H              1 <1>                0.0000
     19 H19          0.8761 -22.4599  12.2088 H              1 <1>                0.0000
     20 H20         -0.1841 -22.6658  13.6237 H              1 <1>                0.0000
     21 H21         -0.5322 -20.4107  12.8363 H              1 <1>                0.0000
     22 H22          2.4488 -20.5155  12.4201 H              1 <1>                0.0000
     23 H23          2.8152 -18.2611  13.1900 H              1 <1>                0.0000
     24 H24          1.0677 -17.8572  13.1027 H              1 <1>                0.0000
     25 H25          2.5108 -19.6680  15.1157 H              1 <1>                0.0000
     26 H26          1.3259 -18.3670  15.4453 H              1 <1>                0.0000
     27 H27          0.6823 -22.0832  18.1865 H              1 <1>                0.0000
     28 H28         -0.8849 -22.5625  18.8810 H              1 <1>                0.0000
     29 H29         -0.6538 -22.5703  17.1162 H              1 <1>                0.0000
     30 H30         -0.8524 -18.8565  19.2313 H              1 <1>                0.0000
     31 H31         -1.0009 -20.3938  20.1162 H              1 <1>                0.0000
     32 H32          0.5663 -19.9144  19.4217 H              1 <1>                0.0000
     33 H33         -2.6453 -21.0853  16.8488 H              1 <1>                0.0000
     34 H34         -2.8763 -21.0776  18.6137 H              1 <1>                0.0000
     35 H35         -2.7279 -19.5403  17.7287 H              1 <1>                0.0000
     36 H36          1.3541 -20.2595  10.4796 H              1 <1>                0.0000
     37 H37          0.0708 -19.4662  11.1422 H              1 <1>                0.0000
     38 H38          1.4812 -18.6618  10.8620 H              1 <1>                0.0000
@<TRIPOS>BOND
    1    1    2 1     
    2    1   16 1     
    3    1   17 1     
    4    1   18 1     
    5    2    3 1     
    6    2   19 1     
    7    2   20 1     
    8    3    4 1     
    9    3    8 1     
   10    3   21 1     
   11    4    5 1     
   12    4    6 1     
   13    4   22 1     
   14    5   36 1     
   15    5   37 1     
   16    5   38 1     
   17    6    7 1     
   18    6   23 1     
   19    6   24 1     
   20    7    8 1     
   21    7   25 1     
   22    7   26 1     
   23    8    9 am    
   24    9   10 2     
   25    9   11 1     
   26   11   12 1     
   27   12   13 1     
   28   12   14 1     
   29   12   15 1     
   30   13   27 1     
   31   13   28 1     
   32   13   29 1     
   33   14   30 1     
   34   14   31 1     
   35   14   32 1     
   36   15   33 1     
   37   15   34 1     
   38   15   35 1     
@<TRIPOS>SUBSTRUCTURE
      1 ****           1
@<TRIPOS>SET
DONOR_HYDROGENS      STATIC     ATOMS    <user>   **** ""
3 36 37 38
ATOM$RED        STATIC     ATOMS    COLORGROUP SYSTEM
3 36 37 38
@<TRIPOS>COMMENT
> <Gold.Version>
2022.2.0

> <Gold.Id.Protein>
3pbl|protein|mol2

> <Gold.Protein.RotatedTorsions>
[ 1303 1298 1297 1294 ] final   13.65 input  179.99 | X-H torsion
[ 2461 2456 2455 2452 ] final -114.41 input   30.03 | X-H torsion
[ 2515 2510 2509 2506 ] final  168.54 input  -89.99 | X-H torsion
[ 3721 3712 3711 3710 ] final   89.48 input -179.91 | X-H torsion
[ 3841 3832 3831 3830 ] final  169.54 input -179.91 | X-H torsion
[ 3767 3762 3761 3758 ] final  149.32 input  -89.99 | X-H torsion
[ 2472 2467 2466 2463 ] final  -52.11 input  -89.97 | X-H torsion

> <Gold.Protein.ActiveResidues>
 VAL82   VAL86   LEU89   PHE106  VAL107  ASP110  VAL111  MET112  CYS114  THR115 
 CYS181  SER182  ILE183  PHE188  VAL189  ILE190  SER192  SER193  SER196  TRP342 
 PHE345  PHE346  HIS349  VAL350  TYR365  THR369  GLY372  TYR373 

> <Gold.Protein.RotatedAtoms>
    3.4763  -10.0347    4.1729 H   0  0  0  0  0  0  0  0  0  0  0  0  # atno 1303 bound_to 1298
    0.5181   -9.1345    7.9932 H   0  0  0  0  0  0  0  0  0  0  0  0  # atno 2461 bound_to 2456
   -3.6793   -5.1423    8.8485 H   0  0  0  0  0  0  0  0  0  0  0  0  # atno 2472 bound_to 2467
    2.2487   -8.9038    5.9522 H   0  0  0  0  0  0  0  0  0  0  0  0  # atno 2515 bound_to 2510
   -2.7801  -17.6212   13.1072 H   0  0  0  0  0  0  0  0  0  0  0  0  # atno 3721 bound_to 3712
   -3.9173  -22.9051   11.2856 H   0  0  0  0  0  0  0  0  0  0  0  0  # atno 3767 bound_to 3762
    3.0375  -20.1723    8.4715 H   0  0  0  0  0  0  0  0  0  0  0  0  # atno 3841 bound_to 3832
    4.0453   -8.5165    3.9786 LP  0  0  0  0  0  0  0  0  0  0  0  0  # atno 4297 bound_to 1298
    4.8408   -9.5698    4.9401 LP  0  0  0  0  0  0  0  0  0  0  0  0  # atno 4298 bound_to 1298
    2.0906   -8.7122    8.1202 LP  0  0  0  0  0  0  0  0  0  0  0  0  # atno 4299 bound_to 2456
    1.1289   -7.9616    7.0347 LP  0  0  0  0  0  0  0  0  0  0  0  0  # atno 4300 bound_to 2456
    2.2128   -7.4176    5.2772 LP  0  0  0  0  0  0  0  0  0  0  0  0  # atno 4301 bound_to 2510
    2.8353   -8.6774    4.4455 LP  0  0  0  0  0  0  0  0  0  0  0  0  # atno 4302 bound_to 2510
   -2.7666  -17.8241   14.6999 LP  0  0  0  0  0  0  0  0  0  0  0  0  # atno 4306 bound_to 3712
   -3.5515  -16.5582   14.0306 LP  0  0  0  0  0  0  0  0  0  0  0  0  # atno 4307 bound_to 3712
    2.2150  -21.0950    9.4953 LP  0  0  0  0  0  0  0  0  0  0  0  0  # atno 4314 bound_to 3832
    1.5056  -19.8083    8.7825 LP  0  0  0  0  0  0  0  0  0  0  0  0  # atno 4315 bound_to 3832
   -4.9920  -23.0504   10.0647 LP  0  0  0  0  0  0  0  0  0  0  0  0  # atno 4318 bound_to 3762
   -5.2178  -21.9196   11.2209 LP  0  0  0  0  0  0  0  0  0  0  0  0  # atno 4319 bound_to 3762
   -5.2668   -5.4134    9.1181 LP  0  0  0  0  0  0  0  0  0  0  0  0  # atno 4320 bound_to 2467
   -4.7707   -4.8378    7.6726 LP  0  0  0  0  0  0  0  0  0  0  0  0  # atno 4321 bound_to 2467

> <Gold.Score>
     Score     S(PLP)   S(hbond)     S(cho)   S(metal)  DE(clash)   DE(tors)     intcor
     40.31     -31.91       2.86       0.00       0.00       0.00       0.32       0.44

> <Gold.PLP.Fitness>
40.3067

> <Gold.PLP.PLP>
-31.9128

> <Gold.PLP.part.hbond>
-2.0000

> <Gold.PLP.part.metal>
0.0000

> <Gold.PLP.part.buried>
-3.9225

> <Gold.PLP.part.nonpolar>
-26.6070

> <Gold.PLP.part.repulsive>
0.0862

> <Gold.PLP.ligand.clash>
0.0000

> <Gold.PLP.ligand.torsion>
0.3168

> <Gold.PLP.Chemscore.Hbond>
2.8640

> <Gold.PLP.Chemscore.CHOScore>
0.0000

> <Gold.PLP.Chemscore.Metal>
0.0000

> <Gold.Chemscore.Hbonds>
donor molecule, donor type, donor heavy atom, donor atom, acceptor molecule, acceptor atom, score
      L1  H     5    36       P1  3832  0.88
      L1  H     5    38       P1  1227  1.98

> <Gold.PLP.Chemscore.Internal.Correction>
0.4354

