#       Name:                EN300-312564_i001
#       Creating user name   fsindt
#       Creation time:       Mon Feb 27 20:44:40 2023


#       File generated by GOLD software.
#

@<TRIPOS>MOLECULE
EN300-312564_i001|amine_3|mol2|696|dock9
    38    38     1
SMALL
USER_CHARGES


@<TRIPOS>ATOM
      1 C1           0.5092 -12.7072   7.8144 C.3            1 <1>                0.0000
      2 C2           0.4523 -11.6708   8.9384 C.3            1 <1>                0.0000
      3 C3          -0.9137 -11.7371   9.6246 C.3            1 <1>                0.0000
      4 C4          -1.3882 -10.3142   9.9876 C.3            1 <1>                0.0000
      5 N5          -2.3581  -9.8220   9.0002 N.4            1 <1>                1.0000
      6 C6          -2.0654 -10.5156  11.3690 C.3            1 <1>                0.0000
      7 C7          -1.1654 -11.6069  12.0004 C.3            1 <1>                0.0000
      8 N8          -0.8064 -12.4950  10.8798 N.am           1 <1>                0.0000
      9 C9          -0.4409 -13.7878  10.9880 C.2            1 <1>                0.0000
     10 O10         -0.0795 -14.4014  10.0035 O.2            1 <1>                0.0000
     11 O11         -0.4765 -14.3993  12.1870 O.3            1 <1>                0.0000
     12 C12          0.3014 -15.6171  12.3292 C.3            1 <1>                0.0000
     13 C13         -0.3136 -16.7191  11.4642 C.3            1 <1>                0.0000
     14 C14          1.7404 -15.3584  11.8784 C.3            1 <1>                0.0000
     15 C15          0.2972 -16.0567  13.7946 C.3            1 <1>                0.0000
     16 H16          1.4567 -12.6156   7.2834 H              1 <1>                0.0000
     17 H17          0.4255 -13.7079   8.2382 H              1 <1>                0.0000
     18 H18         -0.3141 -12.5365   7.1207 H              1 <1>                0.0000
     19 H19          1.2354 -11.8814   9.6669 H              1 <1>                0.0000
     20 H20          0.6018 -10.6746   8.5221 H              1 <1>                0.0000
     21 H21         -1.6381 -12.2118   8.9629 H              1 <1>                0.0000
     22 H22         -0.5406  -9.6333  10.0662 H              1 <1>                0.0000
     23 H23         -2.0364  -9.5976  11.9559 H              1 <1>                0.0000
     24 H24         -3.0892 -10.8719  11.2541 H              1 <1>                0.0000
     25 H25         -0.2700 -11.1581  12.4306 H              1 <1>                0.0000
     26 H26         -1.7165 -12.1598  12.7612 H              1 <1>                0.0000
     27 H27         -0.3106 -16.4058  10.4202 H              1 <1>                0.0000
     28 H28          0.2704 -17.6332  11.5709 H              1 <1>                0.0000
     29 H29         -1.3388 -16.9033  11.7853 H              1 <1>                0.0000
     30 H30          2.1787 -14.5733  12.4947 H              1 <1>                0.0000
     31 H31          2.3245 -16.2725  11.9853 H              1 <1>                0.0000
     32 H32          1.7435 -15.0451  10.8345 H              1 <1>                0.0000
     33 H33         -0.7280 -16.2410  14.1157 H              1 <1>                0.0000
     34 H34          0.8812 -16.9709  13.9013 H              1 <1>                0.0000
     35 H35          0.7353 -15.2716  14.4108 H              1 <1>                0.0000
     36 H36         -2.1019 -10.1544   8.0825 H              1 <1>                0.0000
     37 H37         -3.2790 -10.1606   9.2356 H              1 <1>                0.0000
     38 H38         -2.3595  -8.8130   9.0041 H              1 <1>                0.0000
@<TRIPOS>BOND
    1    1    2 1     
    2    1   16 1     
    3    1   17 1     
    4    1   18 1     
    5    2    3 1     
    6    2   19 1     
    7    2   20 1     
    8    3    4 1     
    9    3    8 1     
   10    3   21 1     
   11    4    5 1     
   12    4    6 1     
   13    4   22 1     
   14    5   36 1     
   15    5   37 1     
   16    5   38 1     
   17    6    7 1     
   18    6   23 1     
   19    6   24 1     
   20    7    8 1     
   21    7   25 1     
   22    7   26 1     
   23    8    9 am    
   24    9   10 2     
   25    9   11 1     
   26   11   12 1     
   27   12   13 1     
   28   12   14 1     
   29   12   15 1     
   30   13   27 1     
   31   13   28 1     
   32   13   29 1     
   33   14   30 1     
   34   14   31 1     
   35   14   32 1     
   36   15   33 1     
   37   15   34 1     
   38   15   35 1     
@<TRIPOS>SUBSTRUCTURE
      1 ****           1
@<TRIPOS>SET
DONOR_HYDROGENS      STATIC     ATOMS    <user>   **** ""
3 36 37 38
ATOM$RED        STATIC     ATOMS    COLORGROUP SYSTEM
3 36 37 38
@<TRIPOS>COMMENT
> <Gold.Version>
2022.2.0

> <Gold.Id.Protein>
3pbl|protein|mol2

> <Gold.Protein.RotatedTorsions>
[ 1303 1298 1297 1294 ] final  123.47 input  179.99 | X-H torsion
[ 2461 2456 2455 2452 ] final  -73.71 input   30.03 | X-H torsion
[ 2515 2510 2509 2506 ] final  140.40 input  -89.99 | X-H torsion
[ 3721 3712 3711 3710 ] final   14.04 input -179.91 | X-H torsion
[ 3841 3832 3831 3830 ] final   84.82 input -179.91 | X-H torsion
[ 3767 3762 3761 3758 ] final  109.86 input  -89.99 | X-H torsion
[ 2472 2467 2466 2463 ] final  144.75 input  -89.97 | X-H torsion

> <Gold.Protein.ActiveResidues>
 VAL82   VAL86   LEU89   PHE106  VAL107  ASP110  VAL111  MET112  CYS114  THR115 
 CYS181  SER182  ILE183  PHE188  VAL189  ILE190  SER192  SER193  SER196  TRP342 
 PHE345  PHE346  HIS349  VAL350  TYR365  THR369  GLY372  TYR373 

> <Gold.Protein.RotatedAtoms>
    4.7709   -9.7216    4.9511 H   0  0  0  0  0  0  0  0  0  0  0  0  # atno 1303 bound_to 1298
    0.3319   -8.7232    7.5174 H   0  0  0  0  0  0  0  0  0  0  0  0  # atno 2461 bound_to 2456
   -5.5099   -5.2178    8.4990 H   0  0  0  0  0  0  0  0  0  0  0  0  # atno 2472 bound_to 2467
    2.1009   -8.4935    6.0927 H   0  0  0  0  0  0  0  0  0  0  0  0  # atno 2515 bound_to 2510
   -2.4702  -18.0173   14.0402 H   0  0  0  0  0  0  0  0  0  0  0  0  # atno 3721 bound_to 3712
   -4.0149  -23.2563   10.7635 H   0  0  0  0  0  0  0  0  0  0  0  0  # atno 3767 bound_to 3762
    2.7852  -20.9387    9.3140 H   0  0  0  0  0  0  0  0  0  0  0  0  # atno 3841 bound_to 3832
    3.4054   -9.9170    4.0773 LP  0  0  0  0  0  0  0  0  0  0  0  0  # atno 4297 bound_to 1298
    4.1856   -8.4826    4.0629 LP  0  0  0  0  0  0  0  0  0  0  0  0  # atno 4298 bound_to 1298
    1.6564   -9.1273    8.3833 LP  0  0  0  0  0  0  0  0  0  0  0  0  # atno 4299 bound_to 2456
    1.7492   -7.9578    7.2474 LP  0  0  0  0  0  0  0  0  0  0  0  0  # atno 4300 bound_to 2456
    2.3985   -7.4641    4.8608 LP  0  0  0  0  0  0  0  0  0  0  0  0  # atno 4301 bound_to 2510
    2.7974   -9.0415    4.7214 LP  0  0  0  0  0  0  0  0  0  0  0  0  # atno 4302 bound_to 2510
   -3.3527  -16.8122   14.6291 LP  0  0  0  0  0  0  0  0  0  0  0  0  # atno 4306 bound_to 3712
   -3.3231  -17.1128   13.0243 LP  0  0  0  0  0  0  0  0  0  0  0  0  # atno 4307 bound_to 3712
    1.3903  -20.1584    9.1674 LP  0  0  0  0  0  0  0  0  0  0  0  0  # atno 4314 bound_to 3832
    2.6216  -19.8595    8.1373 LP  0  0  0  0  0  0  0  0  0  0  0  0  # atno 4315 bound_to 3832
   -5.4046  -22.5917   10.2215 LP  0  0  0  0  0  0  0  0  0  0  0  0  # atno 4318 bound_to 3762
   -4.7076  -22.0273   11.5861 LP  0  0  0  0  0  0  0  0  0  0  0  0  # atno 4319 bound_to 3762
   -4.0905   -4.8098    7.8025 LP  0  0  0  0  0  0  0  0  0  0  0  0  # atno 4320 bound_to 2467
   -4.1167   -5.3659    9.3376 LP  0  0  0  0  0  0  0  0  0  0  0  0  # atno 4321 bound_to 2467

> <Gold.Score>
     Score     S(PLP)   S(hbond)     S(cho)   S(metal)  DE(clash)   DE(tors)     intcor
     41.41     -42.72       0.00       0.00       0.00       0.02       0.87       0.44

> <Gold.PLP.Fitness>
41.4078

> <Gold.PLP.PLP>
-42.7214

> <Gold.PLP.part.hbond>
0.0000

> <Gold.PLP.part.metal>
0.0000

> <Gold.PLP.part.buried>
-2.4848

> <Gold.PLP.part.nonpolar>
-41.9864

> <Gold.PLP.part.repulsive>
0.1935

> <Gold.PLP.ligand.clash>
0.0164

> <Gold.PLP.ligand.torsion>
0.8698

> <Gold.PLP.Chemscore.Hbond>
0.0000

> <Gold.PLP.Chemscore.CHOScore>
0.0000

> <Gold.PLP.Chemscore.Metal>
0.0000

> <Gold.PLP.Chemscore.Internal.Correction>
0.4425

