#       Name:                EN300-312564_i001
#       Creating user name   fsindt
#       Creation time:       Mon Feb 27 20:44:38 2023


#       File generated by GOLD software.
#

@<TRIPOS>MOLECULE
EN300-312564_i001|amine_3|mol2|696|dock7
    38    38     1
SMALL
USER_CHARGES


@<TRIPOS>ATOM
      1 C1           0.8765 -14.0539   7.9815 C.3            1 <1>                0.0000
      2 C2           0.2175 -14.9105   9.0645 C.3            1 <1>                0.0000
      3 C3           0.6179 -14.3847  10.4445 C.3            1 <1>                0.0000
      4 C4           0.7845 -15.5630  11.4270 C.3            1 <1>                0.0000
      5 N5           2.2033 -15.9060  11.5915 N.4            1 <1>                1.0000
      6 C6           0.1993 -14.9989  12.7486 C.3            1 <1>                0.0000
      7 C7          -0.9594 -14.1149  12.2234 C.3            1 <1>                0.0000
      8 N8          -0.4444 -13.5190  10.9771 N.am           1 <1>                0.0000
      9 C9          -0.8757 -12.3706  10.4188 C.2            1 <1>                0.0000
     10 O10         -0.4403 -12.0184   9.3405 O.2            1 <1>                0.0000
     11 O11         -1.7888 -11.6137  11.0560 O.3            1 <1>                0.0000
     12 C12         -2.6862 -10.8272  10.2286 C.3            1 <1>                0.0000
     13 C13         -3.3093 -11.7240   9.1570 C.3            1 <1>                0.0000
     14 C14         -3.7926 -10.2306  11.1008 C.3            1 <1>                0.0000
     15 C15         -1.9021  -9.6985   9.5562 C.3            1 <1>                0.0000
     16 H16          0.6449 -14.4677   7.0001 H              1 <1>                0.0000
     17 H17          0.4976 -13.0339   8.0444 H              1 <1>                0.0000
     18 H18          1.9566 -14.0500   8.1285 H              1 <1>                0.0000
     19 H19         -0.8661 -14.8614   8.9573 H              1 <1>                0.0000
     20 H20          0.5465 -15.9444   8.9602 H              1 <1>                0.0000
     21 H21          1.5519 -13.8275  10.3721 H              1 <1>                0.0000
     22 H22          0.2162 -16.4299  11.0896 H              1 <1>                0.0000
     23 H23         -0.1779 -15.8011  13.3828 H              1 <1>                0.0000
     24 H24          0.9390 -14.3989  13.2788 H              1 <1>                0.0000
     25 H25         -1.8386 -14.7251  12.0171 H              1 <1>                0.0000
     26 H26         -1.1991 -13.3348  12.9461 H              1 <1>                0.0000
     27 H27         -3.8678 -12.5282   9.6360 H              1 <1>                0.0000
     28 H28         -3.9829 -11.1337   8.5359 H              1 <1>                0.0000
     29 H29         -2.5211 -12.1491   8.5357 H              1 <1>                0.0000
     30 H30         -3.3487  -9.5916  11.8642 H              1 <1>                0.0000
     31 H31         -4.4662  -9.6402  10.4797 H              1 <1>                0.0000
     32 H32         -4.3511 -11.0347  11.5798 H              1 <1>                0.0000
     33 H33         -1.1139 -10.1236   8.9349 H              1 <1>                0.0000
     34 H34         -2.5758  -9.1081   8.9352 H              1 <1>                0.0000
     35 H35         -1.4582  -9.0596  10.3197 H              1 <1>                0.0000
     36 H36          2.7690 -15.0879  11.4211 H              1 <1>                0.0000
     37 H37          2.3629 -16.2354  12.5318 H              1 <1>                0.0000
     38 H38          2.4527 -16.6301  10.9346 H              1 <1>                0.0000
@<TRIPOS>BOND
    1    1    2 1     
    2    1   16 1     
    3    1   17 1     
    4    1   18 1     
    5    2    3 1     
    6    2   19 1     
    7    2   20 1     
    8    3    4 1     
    9    3    8 1     
   10    3   21 1     
   11    4    5 1     
   12    4    6 1     
   13    4   22 1     
   14    5   36 1     
   15    5   37 1     
   16    5   38 1     
   17    6    7 1     
   18    6   23 1     
   19    6   24 1     
   20    7    8 1     
   21    7   25 1     
   22    7   26 1     
   23    8    9 am    
   24    9   10 2     
   25    9   11 1     
   26   11   12 1     
   27   12   13 1     
   28   12   14 1     
   29   12   15 1     
   30   13   27 1     
   31   13   28 1     
   32   13   29 1     
   33   14   30 1     
   34   14   31 1     
   35   14   32 1     
   36   15   33 1     
   37   15   34 1     
   38   15   35 1     
@<TRIPOS>SUBSTRUCTURE
      1 ****           1
@<TRIPOS>SET
DONOR_HYDROGENS      STATIC     ATOMS    <user>   **** ""
3 36 37 38
ATOM$RED        STATIC     ATOMS    COLORGROUP SYSTEM
3 36 37 38
@<TRIPOS>COMMENT
> <Gold.Version>
2022.2.0

> <Gold.Id.Protein>
3pbl|protein|mol2

> <Gold.Protein.RotatedTorsions>
[ 1303 1298 1297 1294 ] final   63.43 input  179.99 | X-H torsion
[ 2461 2456 2455 2452 ] final   74.32 input   30.03 | X-H torsion
[ 2515 2510 2509 2506 ] final  158.91 input  -89.99 | X-H torsion
[ 3721 3712 3711 3710 ] final  -48.43 input -179.91 | X-H torsion
[ 3841 3832 3831 3830 ] final -175.11 input -179.91 | X-H torsion
[ 3767 3762 3761 3758 ] final  -98.10 input  -89.99 | X-H torsion
[ 2472 2467 2466 2463 ] final  -98.45 input  -89.97 | X-H torsion

> <Gold.Protein.ActiveResidues>
 VAL82   VAL86   LEU89   PHE106  VAL107  ASP110  VAL111  MET112  CYS114  THR115 
 CYS181  SER182  ILE183  PHE188  VAL189  ILE190  SER192  SER193  SER196  TRP342 
 PHE345  PHE346  HIS349  VAL350  TYR365  THR369  GLY372  TYR373 

> <Gold.Protein.RotatedAtoms>
    4.0552  -10.2648    4.6645 H   0  0  0  0  0  0  0  0  0  0  0  0  # atno 1303 bound_to 1298
    2.0496   -8.1429    7.5373 H   0  0  0  0  0  0  0  0  0  0  0  0  # atno 2461 bound_to 2456
   -4.1628   -5.3794    9.3586 H   0  0  0  0  0  0  0  0  0  0  0  0  # atno 2472 bound_to 2467
    2.1912   -8.7742    6.0222 H   0  0  0  0  0  0  0  0  0  0  0  0  # atno 2515 bound_to 2510
   -2.7176  -17.4805   14.7167 H   0  0  0  0  0  0  0  0  0  0  0  0  # atno 3721 bound_to 3712
   -5.1332  -21.9140   11.3086 H   0  0  0  0  0  0  0  0  0  0  0  0  # atno 3767 bound_to 3762
    2.9134  -19.9952    8.3898 H   0  0  0  0  0  0  0  0  0  0  0  0  # atno 3841 bound_to 3832
    3.4706   -9.0253    3.7766 LP  0  0  0  0  0  0  0  0  0  0  0  0  # atno 4297 bound_to 1298
    4.8364   -8.8310    4.6504 LP  0  0  0  0  0  0  0  0  0  0  0  0  # atno 4298 bound_to 1298
    0.4645   -8.3918    7.2325 LP  0  0  0  0  0  0  0  0  0  0  0  0  # atno 4299 bound_to 2456
    1.2238   -9.2734    8.3783 LP  0  0  0  0  0  0  0  0  0  0  0  0  # atno 4300 bound_to 2456
    2.2725   -7.4086    5.1310 LP  0  0  0  0  0  0  0  0  0  0  0  0  # atno 4301 bound_to 2510
    2.8331   -8.8161    4.5216 LP  0  0  0  0  0  0  0  0  0  0  0  0  # atno 4302 bound_to 2510
   -3.5649  -16.5884   13.6852 LP  0  0  0  0  0  0  0  0  0  0  0  0  # atno 4306 bound_to 3712
   -2.8253  -17.9564   13.1871 LP  0  0  0  0  0  0  0  0  0  0  0  0  # atno 4307 bound_to 3712
    2.4463  -21.1503    9.4016 LP  0  0  0  0  0  0  0  0  0  0  0  0  # atno 4314 bound_to 3832
    1.4176  -19.9576    8.9706 LP  0  0  0  0  0  0  0  0  0  0  0  0  # atno 4315 bound_to 3832
   -3.9076  -22.9875   11.1962 LP  0  0  0  0  0  0  0  0  0  0  0  0  # atno 4318 bound_to 3762
   -5.0867  -22.9733   10.0665 LP  0  0  0  0  0  0  0  0  0  0  0  0  # atno 4319 bound_to 3762
   -5.5077   -5.1991    8.4501 LP  0  0  0  0  0  0  0  0  0  0  0  0  # atno 4320 bound_to 2467
   -4.0463   -4.8151    7.8307 LP  0  0  0  0  0  0  0  0  0  0  0  0  # atno 4321 bound_to 2467

> <Gold.Score>
     Score     S(PLP)   S(hbond)     S(cho)   S(metal)  DE(clash)   DE(tors)     intcor
     48.75     -44.24       2.00       0.00       0.00       0.00       0.97       0.44

> <Gold.PLP.Fitness>
48.7462

> <Gold.PLP.PLP>
-44.2384

> <Gold.PLP.part.hbond>
-1.0000

> <Gold.PLP.part.metal>
0.0000

> <Gold.PLP.part.buried>
-4.8026

> <Gold.PLP.part.nonpolar>
-39.5765

> <Gold.PLP.part.repulsive>
0.0297

> <Gold.PLP.ligand.clash>
0.0000

> <Gold.PLP.ligand.torsion>
0.9673

> <Gold.PLP.Chemscore.Hbond>
2.0000

> <Gold.PLP.Chemscore.CHOScore>
0.0000

> <Gold.PLP.Chemscore.Metal>
0.0000

> <Gold.Chemscore.Hbonds>
donor molecule, donor type, donor heavy atom, donor atom, acceptor molecule, acceptor atom, score
      L1  H     5    38       P1  1227  2.00

> <Gold.PLP.Chemscore.Internal.Correction>
0.4425

