#       Name:                EN300-312564_i001
#       Creating user name   fsindt
#       Creation time:       Mon Feb 27 20:44:43 2023


#       File generated by GOLD software.
#

@<TRIPOS>MOLECULE
EN300-312564_i001|amine_3|mol2|696|dock12
    38    38     1
SMALL
USER_CHARGES


@<TRIPOS>ATOM
      1 C1           2.2995 -15.1273  10.7300 C.3            1 <1>                0.0000
      2 C2           1.7264 -14.0095   9.8567 C.3            1 <1>                0.0000
      3 C3           0.3887 -14.4593   9.2655 C.3            1 <1>                0.0000
      4 C4           0.6341 -15.3435   8.0248 C.3            1 <1>                0.0000
      5 N5           0.5021 -16.7662   8.3662 N.4            1 <1>                1.0000
      6 C6          -0.4956 -14.9043   7.0562 C.3            1 <1>                0.0000
      7 C7          -0.6011 -13.3905   7.3673 C.3            1 <1>                0.0000
      8 N8          -0.3808 -13.2878   8.8215 N.am           1 <1>                0.0000
      9 C9          -0.8136 -12.2863   9.6128 C.2            1 <1>                0.0000
     10 O10         -0.4976 -12.2588  10.7857 O.2            1 <1>                0.0000
     11 O11         -1.5964 -11.3164   9.1035 O.3            1 <1>                0.0000
     12 C12         -2.2943 -10.4667  10.0519 C.3            1 <1>                0.0000
     13 C13         -3.0767 -11.3375  11.0371 C.3            1 <1>                0.0000
     14 C14         -1.2790  -9.6163  10.8178 C.3            1 <1>                0.0000
     15 C15         -3.2625  -9.5513   9.3000 C.3            1 <1>                0.0000
     16 H16          3.2824 -14.8330  11.0980 H              1 <1>                0.0000
     17 H17          1.6340 -15.3061  11.5745 H              1 <1>                0.0000
     18 H18          2.3905 -16.0392  10.1398 H              1 <1>                0.0000
     19 H19          1.5737 -13.1166  10.4630 H              1 <1>                0.0000
     20 H20          2.4234 -13.7856   9.0493 H              1 <1>                0.0000
     21 H21         -0.1776 -15.0165  10.0117 H              1 <1>                0.0000
     22 H22          1.6150 -15.1409   7.5947 H              1 <1>                0.0000
     23 H23         -0.2070 -15.0706   6.0183 H              1 <1>                0.0000
     24 H24         -1.4296 -15.4166   7.2872 H              1 <1>                0.0000
     25 H25          0.1676 -12.8377   6.8273 H              1 <1>                0.0000
     26 H26         -1.5916 -13.0176   7.1065 H              1 <1>                0.0000
     27 H27         -2.3869 -11.9897  11.5727 H              1 <1>                0.0000
     28 H28         -3.6005 -10.6997  11.7490 H              1 <1>                0.0000
     29 H29         -3.8000 -11.9434  10.4914 H              1 <1>                0.0000
     30 H30         -0.7216  -8.9959  10.1160 H              1 <1>                0.0000
     31 H31         -1.8029  -8.9784  11.5297 H              1 <1>                0.0000
     32 H32         -0.5892 -10.2684  11.3535 H              1 <1>                0.0000
     33 H33         -3.9858 -10.1572   8.7543 H              1 <1>                0.0000
     34 H34         -3.7864  -8.9135  10.0120 H              1 <1>                0.0000
     35 H35         -2.7052  -8.9310   8.5981 H              1 <1>                0.0000
     36 H36          1.2738 -17.0440   8.9539 H              1 <1>                0.0000
     37 H37         -0.3661 -16.9148   8.8584 H              1 <1>                0.0000
     38 H38          0.5079 -17.3169   7.5208 H              1 <1>                0.0000
@<TRIPOS>BOND
    1    1    2 1     
    2    1   16 1     
    3    1   17 1     
    4    1   18 1     
    5    2    3 1     
    6    2   19 1     
    7    2   20 1     
    8    3    4 1     
    9    3    8 1     
   10    3   21 1     
   11    4    5 1     
   12    4    6 1     
   13    4   22 1     
   14    5   36 1     
   15    5   37 1     
   16    5   38 1     
   17    6    7 1     
   18    6   23 1     
   19    6   24 1     
   20    7    8 1     
   21    7   25 1     
   22    7   26 1     
   23    8    9 am    
   24    9   10 2     
   25    9   11 1     
   26   11   12 1     
   27   12   13 1     
   28   12   14 1     
   29   12   15 1     
   30   13   27 1     
   31   13   28 1     
   32   13   29 1     
   33   14   30 1     
   34   14   31 1     
   35   14   32 1     
   36   15   33 1     
   37   15   34 1     
   38   15   35 1     
@<TRIPOS>SUBSTRUCTURE
      1 ****           1
@<TRIPOS>SET
DONOR_HYDROGENS      STATIC     ATOMS    <user>   **** ""
3 36 37 38
ATOM$RED        STATIC     ATOMS    COLORGROUP SYSTEM
3 36 37 38
@<TRIPOS>COMMENT
> <Gold.Version>
2022.2.0

> <Gold.Id.Protein>
3pbl|protein|mol2

> <Gold.Protein.RotatedTorsions>
[ 1303 1298 1297 1294 ] final -117.15 input  179.99 | X-H torsion
[ 2461 2456 2455 2452 ] final  105.07 input   30.03 | X-H torsion
[ 2515 2510 2509 2506 ] final  -62.41 input  -89.99 | X-H torsion
[ 3721 3712 3711 3710 ] final   -4.68 input -179.91 | X-H torsion
[ 3841 3832 3831 3830 ] final  147.45 input -179.91 | X-H torsion
[ 3767 3762 3761 3758 ] final  137.78 input  -89.99 | X-H torsion
[ 2472 2467 2466 2463 ] final -110.65 input  -89.97 | X-H torsion

> <Gold.Protein.ActiveResidues>
 VAL82   VAL86   LEU89   PHE106  VAL107  ASP110  VAL111  MET112  CYS114  THR115 
 CYS181  SER182  ILE183  PHE188  VAL189  ILE190  SER192  SER193  SER196  TRP342 
 PHE345  PHE346  HIS349  VAL350  TYR365  THR369  GLY372  TYR373 

> <Gold.Protein.RotatedAtoms>
    4.1940   -8.4815    4.0689 H   0  0  0  0  0  0  0  0  0  0  0  0  # atno 1303 bound_to 1298
    2.1609   -8.4679    7.9007 H   0  0  0  0  0  0  0  0  0  0  0  0  # atno 2461 bound_to 2456
   -4.3504   -5.4206    9.4158 H   0  0  0  0  0  0  0  0  0  0  0  0  # atno 2472 bound_to 2467
    2.8271   -8.5379    4.3942 H   0  0  0  0  0  0  0  0  0  0  0  0  # atno 2515 bound_to 2510
   -2.4981  -17.9272   14.3057 H   0  0  0  0  0  0  0  0  0  0  0  0  # atno 3721 bound_to 3712
   -3.9072  -23.0301   11.1434 H   0  0  0  0  0  0  0  0  0  0  0  0  # atno 3767 bound_to 3762
    3.1283  -20.4359    8.6513 H   0  0  0  0  0  0  0  0  0  0  0  0  # atno 3841 bound_to 3832
    4.7664   -9.7308    4.9509 LP  0  0  0  0  0  0  0  0  0  0  0  0  # atno 4297 bound_to 1298
    3.4018   -9.9093    4.0719 LP  0  0  0  0  0  0  0  0  0  0  0  0  # atno 4298 bound_to 1298
    0.8181   -8.0877    7.0522 LP  0  0  0  0  0  0  0  0  0  0  0  0  # atno 4299 bound_to 2456
    0.7591   -9.2525    8.1952 LP  0  0  0  0  0  0  0  0  0  0  0  0  # atno 4300 bound_to 2456
    2.3073   -9.0115    5.8678 LP  0  0  0  0  0  0  0  0  0  0  0  0  # atno 4301 bound_to 2510
    2.1621   -7.4496    5.4136 LP  0  0  0  0  0  0  0  0  0  0  0  0  # atno 4302 bound_to 2510
   -3.4671  -16.6498   14.3893 LP  0  0  0  0  0  0  0  0  0  0  0  0  # atno 4306 bound_to 3712
   -3.1764  -17.3792   12.9576 LP  0  0  0  0  0  0  0  0  0  0  0  0  # atno 4307 bound_to 3712
    1.8916  -20.9296    9.5474 LP  0  0  0  0  0  0  0  0  0  0  0  0  # atno 4314 bound_to 3832
    1.7241  -19.6692    8.5227 LP  0  0  0  0  0  0  0  0  0  0  0  0  # atno 4315 bound_to 3832
   -5.1365  -22.9280   10.0732 LP  0  0  0  0  0  0  0  0  0  0  0  0  # atno 4318 bound_to 3762
   -5.0834  -21.9171   11.3546 LP  0  0  0  0  0  0  0  0  0  0  0  0  # atno 4319 bound_to 3762
   -5.4723   -5.1288    8.2658 LP  0  0  0  0  0  0  0  0  0  0  0  0  # atno 4320 bound_to 2467
   -3.8941   -4.8442    7.9577 LP  0  0  0  0  0  0  0  0  0  0  0  0  # atno 4321 bound_to 2467

> <Gold.Score>
     Score     S(PLP)   S(hbond)     S(cho)   S(metal)  DE(clash)   DE(tors)     intcor
     44.54     -38.96       2.00       0.00       0.00       0.00       0.43       0.44

> <Gold.PLP.Fitness>
44.5417

> <Gold.PLP.PLP>
-38.9643

> <Gold.PLP.part.hbond>
-1.0000

> <Gold.PLP.part.metal>
0.0000

> <Gold.PLP.part.buried>
-0.5780

> <Gold.PLP.part.nonpolar>
-39.0216

> <Gold.PLP.part.repulsive>
0.0000

> <Gold.PLP.ligand.clash>
0.0000

> <Gold.PLP.ligand.torsion>
0.4290

> <Gold.PLP.Chemscore.Hbond>
2.0000

> <Gold.PLP.Chemscore.CHOScore>
0.0000

> <Gold.PLP.Chemscore.Metal>
0.0000

> <Gold.Chemscore.Hbonds>
donor molecule, donor type, donor heavy atom, donor atom, acceptor molecule, acceptor atom, score
      L1  H     5    36       P1  1227  2.00

> <Gold.PLP.Chemscore.Internal.Correction>
0.4354

