#       Name:                EN300-312564_i001
#       Creating user name   fsindt
#       Creation time:       Mon Feb 27 20:44:47 2023


#       File generated by GOLD software.
#

@<TRIPOS>MOLECULE
EN300-312564_i001|amine_3|mol2|696|dock15
    38    38     1
SMALL
USER_CHARGES


@<TRIPOS>ATOM
      1 C1          -0.6957 -11.0904   8.6867 C.3            1 <1>                0.0000
      2 C2          -0.7855 -12.4591   9.3644 C.3            1 <1>                0.0000
      3 C3           0.3137 -13.3722   8.8174 C.3            1 <1>                0.0000
      4 C4           0.1792 -13.4955   7.2850 C.3            1 <1>                0.0000
      5 N5           1.1356 -12.6107   6.6065 N.4            1 <1>                1.0000
      6 C6           0.5284 -14.9845   7.0242 C.3            1 <1>                0.0000
      7 C7          -0.0768 -15.6696   8.2748 C.3            1 <1>                0.0000
      8 N8           0.1667 -14.7232   9.3786 N.am           1 <1>                0.0000
      9 C9           0.2425 -15.0433  10.6856 C.2            1 <1>                0.0000
     10 O10          0.3584 -14.1676  11.5199 O.2            1 <1>                0.0000
     11 O11          0.1899 -16.3336  11.0667 O.3            1 <1>                0.0000
     12 C12          0.6026 -16.6369  12.4255 C.3            1 <1>                0.0000
     13 C13         -0.3919 -16.0191  13.4105 C.3            1 <1>                0.0000
     14 C14          0.6384 -18.1538  12.6209 C.3            1 <1>                0.0000
     15 C15          1.9961 -16.0572  12.6766 C.3            1 <1>                0.0000
     16 H16         -1.5181 -10.4615   9.0276 H              1 <1>                0.0000
     17 H17          0.2529 -10.6191   8.9441 H              1 <1>                0.0000
     18 H18         -0.7577 -11.2154   7.6057 H              1 <1>                0.0000
     19 H19         -0.6576 -12.3409  10.4405 H              1 <1>                0.0000
     20 H20         -1.7604 -12.9020   9.1610 H              1 <1>                0.0000
     21 H21          1.2929 -12.9670   9.0722 H              1 <1>                0.0000
     22 H22         -0.8402 -13.2745   6.9683 H              1 <1>                0.0000
     23 H23          0.0512 -15.3439   6.1126 H              1 <1>                0.0000
     24 H24          1.6077 -15.1312   6.9823 H              1 <1>                0.0000
     25 H25         -1.1468 -15.8282   8.1401 H              1 <1>                0.0000
     26 H26          0.4263 -16.6168   8.4694 H              1 <1>                0.0000
     27 H27         -1.3846 -16.4320  13.2315 H              1 <1>                0.0000
     28 H28         -0.0822 -16.2467  14.4303 H              1 <1>                0.0000
     29 H29         -0.4174 -14.9383  13.2712 H              1 <1>                0.0000
     30 H30          1.3469 -18.5940  11.9192 H              1 <1>                0.0000
     31 H31          0.9483 -18.3815  13.6409 H              1 <1>                0.0000
     32 H32         -0.3543 -18.5668  12.4420 H              1 <1>                0.0000
     33 H33          1.9706 -14.9764  12.5373 H              1 <1>                0.0000
     34 H34          2.3058 -16.2849  13.6965 H              1 <1>                0.0000
     35 H35          2.7046 -16.4973  11.9748 H              1 <1>                0.0000
     36 H36          0.7019 -12.2116   5.7875 H              1 <1>                0.0000
     37 H37          1.4134 -11.8712   7.2343 H              1 <1>                0.0000
     38 H38          1.9484 -13.1417   6.3317 H              1 <1>                0.0000
@<TRIPOS>BOND
    1    1    2 1     
    2    1   16 1     
    3    1   17 1     
    4    1   18 1     
    5    2    3 1     
    6    2   19 1     
    7    2   20 1     
    8    3    4 1     
    9    3    8 1     
   10    3   21 1     
   11    4    5 1     
   12    4    6 1     
   13    4   22 1     
   14    5   36 1     
   15    5   37 1     
   16    5   38 1     
   17    6    7 1     
   18    6   23 1     
   19    6   24 1     
   20    7    8 1     
   21    7   25 1     
   22    7   26 1     
   23    8    9 am    
   24    9   10 2     
   25    9   11 1     
   26   11   12 1     
   27   12   13 1     
   28   12   14 1     
   29   12   15 1     
   30   13   27 1     
   31   13   28 1     
   32   13   29 1     
   33   14   30 1     
   34   14   31 1     
   35   14   32 1     
   36   15   33 1     
   37   15   34 1     
   38   15   35 1     
@<TRIPOS>SUBSTRUCTURE
      1 ****           1
@<TRIPOS>SET
DONOR_HYDROGENS      STATIC     ATOMS    <user>   **** ""
3 36 37 38
ATOM$RED        STATIC     ATOMS    COLORGROUP SYSTEM
3 36 37 38
@<TRIPOS>COMMENT
> <Gold.Version>
2022.2.0

> <Gold.Id.Protein>
3pbl|protein|mol2

> <Gold.Protein.RotatedTorsions>
[ 1303 1298 1297 1294 ] final -115.26 input  179.99 | X-H torsion
[ 2461 2456 2455 2452 ] final  128.82 input   30.03 | X-H torsion
[ 2515 2510 2509 2506 ] final  127.45 input  -89.99 | X-H torsion
[ 3721 3712 3711 3710 ] final  138.38 input -179.91 | X-H torsion
[ 3841 3832 3831 3830 ] final  168.96 input -179.91 | X-H torsion
[ 3767 3762 3761 3758 ] final -141.56 input  -89.99 | X-H torsion
[ 2472 2467 2466 2463 ] final  -32.15 input  -89.97 | X-H torsion

> <Gold.Protein.ActiveResidues>
 VAL82   VAL86   LEU89   PHE106  VAL107  ASP110  VAL111  MET112  CYS114  THR115 
 CYS181  SER182  ILE183  PHE188  VAL189  ILE190  SER192  SER193  SER196  TRP342 
 PHE345  PHE346  HIS349  VAL350  TYR365  THR369  GLY372  TYR373 

> <Gold.Protein.RotatedAtoms>
    4.1679   -8.4854    4.0523 H   0  0  0  0  0  0  0  0  0  0  0  0  # atno 1303 bound_to 1298
    2.0696   -8.7502    8.1510 H   0  0  0  0  0  0  0  0  0  0  0  0  # atno 2461 bound_to 2456
   -3.6351   -5.0282    8.5453 H   0  0  0  0  0  0  0  0  0  0  0  0  # atno 2472 bound_to 2467
    2.0578   -8.2855    6.0886 H   0  0  0  0  0  0  0  0  0  0  0  0  # atno 2515 bound_to 2510
   -3.1364  -16.9990   13.1095 H   0  0  0  0  0  0  0  0  0  0  0  0  # atno 3721 bound_to 3712
   -4.5486  -22.1145   11.6334 H   0  0  0  0  0  0  0  0  0  0  0  0  # atno 3767 bound_to 3762
    3.0413  -20.1791    8.4753 H   0  0  0  0  0  0  0  0  0  0  0  0  # atno 3841 bound_to 3832
    4.7812   -9.7034    4.9505 LP  0  0  0  0  0  0  0  0  0  0  0  0  # atno 4297 bound_to 1298
    3.4131   -9.9329    4.0889 LP  0  0  0  0  0  0  0  0  0  0  0  0  # atno 4298 bound_to 1298
    1.1803   -7.9489    7.0400 LP  0  0  0  0  0  0  0  0  0  0  0  0  # atno 4299 bound_to 2456
    0.4881   -9.1091    7.9573 LP  0  0  0  0  0  0  0  0  0  0  0  0  # atno 4300 bound_to 2456
    2.4895   -7.5571    4.6926 LP  0  0  0  0  0  0  0  0  0  0  0  0  # atno 4301 bound_to 2510
    2.7496   -9.1566    4.8936 LP  0  0  0  0  0  0  0  0  0  0  0  0  # atno 4302 bound_to 2510
   -2.6071  -18.2073   14.0246 LP  0  0  0  0  0  0  0  0  0  0  0  0  # atno 4306 bound_to 3712
   -3.2996  -16.8934   14.7033 LP  0  0  0  0  0  0  0  0  0  0  0  0  # atno 4307 bound_to 3712
    2.2062  -21.0919    9.4979 LP  0  0  0  0  0  0  0  0  0  0  0  0  # atno 4314 bound_to 3832
    1.5100  -19.8035    8.7755 LP  0  0  0  0  0  0  0  0  0  0  0  0  # atno 4315 bound_to 3832
   -4.1087  -23.3086   10.6099 LP  0  0  0  0  0  0  0  0  0  0  0  0  # atno 4318 bound_to 3762
   -5.4700  -22.4518   10.3280 LP  0  0  0  0  0  0  0  0  0  0  0  0  # atno 4319 bound_to 3762
   -5.0099   -5.4563    9.3156 LP  0  0  0  0  0  0  0  0  0  0  0  0  # atno 4320 bound_to 2467
   -5.0717   -4.9090    7.7782 LP  0  0  0  0  0  0  0  0  0  0  0  0  # atno 4321 bound_to 2467

> <Gold.Score>
     Score     S(PLP)   S(hbond)     S(cho)   S(metal)  DE(clash)   DE(tors)     intcor
     38.53     -38.57       0.00       0.00       0.00       0.00       0.24       0.44

> <Gold.PLP.Fitness>
38.5266

> <Gold.PLP.PLP>
-38.5659

> <Gold.PLP.part.hbond>
0.0000

> <Gold.PLP.part.metal>
0.0000

> <Gold.PLP.part.buried>
-2.1625

> <Gold.PLP.part.nonpolar>
-37.3022

> <Gold.PLP.part.repulsive>
0.3205

> <Gold.PLP.ligand.clash>
0.0000

> <Gold.PLP.ligand.torsion>
0.2374

> <Gold.PLP.Chemscore.Hbond>
0.0000

> <Gold.PLP.Chemscore.CHOScore>
0.0000

> <Gold.PLP.Chemscore.Metal>
0.0000

> <Gold.PLP.Chemscore.Internal.Correction>
0.4354

