#       Name:                EN300-312564_i001
#       Creating user name   fsindt
#       Creation time:       Mon Feb 27 20:44:33 2023


#       File generated by GOLD software.
#

@<TRIPOS>MOLECULE
EN300-312564_i001|amine_3|mol2|696|dock1
    38    38     1
SMALL
USER_CHARGES


@<TRIPOS>ATOM
      1 C1           0.2430 -15.0971  11.6781 C.3            1 <1>                0.0000
      2 C2           1.1320 -14.6886  10.5019 C.3            1 <1>                0.0000
      3 C3           0.2868 -14.6038   9.2292 C.3            1 <1>                0.0000
      4 C4           1.1195 -15.0651   8.0145 C.3            1 <1>                0.0000
      5 N5           0.7924 -16.4517   7.6565 N.4            1 <1>                1.0000
      6 C6           0.6714 -14.0887   6.8951 C.3            1 <1>                0.0000
      7 C7           0.4585 -12.7778   7.6925 C.3            1 <1>                0.0000
      8 N8          -0.1082 -13.2092   8.9834 N.am           1 <1>                0.0000
      9 C9          -0.8637 -12.4508   9.8023 C.2            1 <1>                0.0000
     10 O10         -1.2042 -12.8809  10.8865 O.2            1 <1>                0.0000
     11 O11         -1.2414 -11.2167   9.4188 O.3            1 <1>                0.0000
     12 C12         -2.3294 -10.6010  10.1574 C.3            1 <1>                0.0000
     13 C13         -2.7405  -9.2981   9.4686 C.3            1 <1>                0.0000
     14 C14         -3.5239 -11.5562  10.1963 C.3            1 <1>                0.0000
     15 C15         -1.8702 -10.3000  11.5855 C.3            1 <1>                0.0000
     16 H16          0.8561 -15.2214  12.5708 H              1 <1>                0.0000
     17 H17         -0.5037 -14.3231  11.8552 H              1 <1>                0.0000
     18 H18         -0.2566 -16.0378  11.4465 H              1 <1>                0.0000
     19 H19          1.5803 -13.7161  10.7057 H              1 <1>                0.0000
     20 H20          1.9191 -15.4303  10.3665 H              1 <1>                0.0000
     21 H21         -0.5994 -15.2302   9.3305 H              1 <1>                0.0000
     22 H22          2.1858 -14.9616   8.2162 H              1 <1>                0.0000
     23 H23          1.4538 -13.9676   6.1460 H              1 <1>                0.0000
     24 H24         -0.2591 -14.4219   6.4354 H              1 <1>                0.0000
     25 H25          1.4099 -12.2690   7.8471 H              1 <1>                0.0000
     26 H26         -0.2412 -12.1253   7.1702 H              1 <1>                0.0000
     27 H27         -3.0675  -9.5125   8.4512 H              1 <1>                0.0000
     28 H28         -3.5572  -8.8360  10.0230 H              1 <1>                0.0000
     29 H29         -1.8894  -8.6177   9.4408 H              1 <1>                0.0000
     30 H30         -3.2312 -12.4844  10.6871 H              1 <1>                0.0000
     31 H31         -4.3407 -11.0940  10.7509 H              1 <1>                0.0000
     32 H32         -3.8511 -11.7706   9.1790 H              1 <1>                0.0000
     33 H33         -1.0191  -9.6196  11.5577 H              1 <1>                0.0000
     34 H34         -2.6870  -9.8379  12.1399 H              1 <1>                0.0000
     35 H35         -1.5773 -11.2283  12.0762 H              1 <1>                0.0000
     36 H36         -0.1571 -16.6548   7.9310 H              1 <1>                0.0000
     37 H37          0.8874 -16.5729   6.6593 H              1 <1>                0.0000
     38 H38          1.4219 -17.0797   8.1332 H              1 <1>                0.0000
@<TRIPOS>BOND
    1    1    2 1     
    2    1   16 1     
    3    1   17 1     
    4    1   18 1     
    5    2    3 1     
    6    2   19 1     
    7    2   20 1     
    8    3    4 1     
    9    3    8 1     
   10    3   21 1     
   11    4    5 1     
   12    4    6 1     
   13    4   22 1     
   14    5   36 1     
   15    5   37 1     
   16    5   38 1     
   17    6    7 1     
   18    6   23 1     
   19    6   24 1     
   20    7    8 1     
   21    7   25 1     
   22    7   26 1     
   23    8    9 am    
   24    9   10 2     
   25    9   11 1     
   26   11   12 1     
   27   12   13 1     
   28   12   14 1     
   29   12   15 1     
   30   13   27 1     
   31   13   28 1     
   32   13   29 1     
   33   14   30 1     
   34   14   31 1     
   35   14   32 1     
   36   15   33 1     
   37   15   34 1     
   38   15   35 1     
@<TRIPOS>SUBSTRUCTURE
      1 ****           1
@<TRIPOS>SET
DONOR_HYDROGENS      STATIC     ATOMS    <user>   **** ""
3 36 37 38
ATOM$RED        STATIC     ATOMS    COLORGROUP SYSTEM
3 36 37 38
@<TRIPOS>COMMENT
> <Gold.Version>
2022.2.0

> <Gold.Id.Protein>
3pbl|protein|mol2

> <Gold.Protein.RotatedTorsions>
[ 1303 1298 1297 1294 ] final -138.88 input  179.99 | X-H torsion
[ 2461 2456 2455 2452 ] final -143.67 input   30.03 | X-H torsion
[ 2515 2510 2509 2506 ] final   34.26 input  -89.99 | X-H torsion
[ 3721 3712 3711 3710 ] final  -22.55 input -179.91 | X-H torsion
[ 3841 3832 3831 3830 ] final   99.55 input -179.91 | X-H torsion
[ 3767 3762 3761 3758 ] final  -27.98 input  -89.99 | X-H torsion
[ 2472 2467 2466 2463 ] final -177.89 input  -89.97 | X-H torsion

> <Gold.Protein.ActiveResidues>
 VAL82   VAL86   LEU89   PHE106  VAL107  ASP110  VAL111  MET112  CYS114  THR115 
 CYS181  SER182  ILE183  PHE188  VAL189  ILE190  SER192  SER193  SER196  TRP342 
 PHE345  PHE346  HIS349  VAL350  TYR365  THR369  GLY372  TYR373 

> <Gold.Protein.RotatedAtoms>
    4.4804   -8.5067    4.2777 H   0  0  0  0  0  0  0  0  0  0  0  0  # atno 1303 bound_to 1298
    0.8823   -9.2785    8.2643 H   0  0  0  0  0  0  0  0  0  0  0  0  # atno 2461 bound_to 2456
   -5.3267   -5.3950    9.0465 H   0  0  0  0  0  0  0  0  0  0  0  0  # atno 2472 bound_to 2467
    2.3033   -7.4139    5.0612 H   0  0  0  0  0  0  0  0  0  0  0  0  # atno 2515 bound_to 2510
   -2.5651  -17.7773   14.5190 H   0  0  0  0  0  0  0  0  0  0  0  0  # atno 3721 bound_to 3712
   -5.4934  -22.3753   10.3970 H   0  0  0  0  0  0  0  0  0  0  0  0  # atno 3767 bound_to 3762
    2.9368  -20.8763    9.1642 H   0  0  0  0  0  0  0  0  0  0  0  0  # atno 3841 bound_to 3832
    4.5511  -10.0106    4.9099 LP  0  0  0  0  0  0  0  0  0  0  0  0  # atno 4297 bound_to 1298
    3.3306   -9.6043    3.9040 LP  0  0  0  0  0  0  0  0  0  0  0  0  # atno 4298 bound_to 1298
    2.1552   -8.3673    7.7983 LP  0  0  0  0  0  0  0  0  0  0  0  0  # atno 4299 bound_to 2456
    0.7002   -8.1625    7.0858 LP  0  0  0  0  0  0  0  0  0  0  0  0  # atno 4300 bound_to 2456
    2.8280   -8.8785    4.5657 LP  0  0  0  0  0  0  0  0  0  0  0  0  # atno 4301 bound_to 2510
    2.1655   -8.7071    6.0484 LP  0  0  0  0  0  0  0  0  0  0  0  0  # atno 4302 bound_to 2510
   -3.5390  -16.5672   14.1127 LP  0  0  0  0  0  0  0  0  0  0  0  0  # atno 4306 bound_to 3712
   -3.0273  -17.6348   12.9880 LP  0  0  0  0  0  0  0  0  0  0  0  0  # atno 4307 bound_to 3712
    1.4281  -20.3503    9.3158 LP  0  0  0  0  0  0  0  0  0  0  0  0  # atno 4314 bound_to 3832
    2.4088  -19.7396    8.1617 LP  0  0  0  0  0  0  0  0  0  0  0  0  # atno 4315 bound_to 3832
   -4.4621  -22.1736   11.6470 LP  0  0  0  0  0  0  0  0  0  0  0  0  # atno 4318 bound_to 3762
   -4.1721  -23.3261   10.5270 LP  0  0  0  0  0  0  0  0  0  0  0  0  # atno 4319 bound_to 3762
   -4.6775   -4.8236    7.6615 LP  0  0  0  0  0  0  0  0  0  0  0  0  # atno 4320 bound_to 2467
   -3.7128   -5.1751    8.9312 LP  0  0  0  0  0  0  0  0  0  0  0  0  # atno 4321 bound_to 2467

> <Gold.Score>
     Score     S(PLP)   S(hbond)     S(cho)   S(metal)  DE(clash)   DE(tors)     intcor
     52.46     -47.50       2.00       0.00       0.00       0.00       0.76       0.49

> <Gold.PLP.Fitness>
52.4595

> <Gold.PLP.PLP>
-47.4971

> <Gold.PLP.part.hbond>
-1.0000

> <Gold.PLP.part.metal>
0.0000

> <Gold.PLP.part.buried>
-2.0350

> <Gold.PLP.part.nonpolar>
-46.3643

> <Gold.PLP.part.repulsive>
0.0435

> <Gold.PLP.ligand.clash>
0.0000

> <Gold.PLP.ligand.torsion>
0.7622

> <Gold.PLP.Chemscore.Hbond>
2.0000

> <Gold.PLP.Chemscore.CHOScore>
0.0000

> <Gold.PLP.Chemscore.Metal>
0.0000

> <Gold.Chemscore.Hbonds>
donor molecule, donor type, donor heavy atom, donor atom, acceptor molecule, acceptor atom, score
      L1  H     5    38       P1  1227  2.00

> <Gold.PLP.Chemscore.Internal.Correction>
0.4868

