#       Name:                EN300-312564_i001
#       Creating user name   fsindt
#       Creation time:       Mon Feb 27 20:44:34 2023


#       File generated by GOLD software.
#

@<TRIPOS>MOLECULE
EN300-312564_i001|amine_3|mol2|696|dock2
    38    38     1
SMALL
USER_CHARGES


@<TRIPOS>ATOM
      1 C1           0.8218 -15.1818  11.2762 C.3            1 <1>                0.0000
      2 C2           1.4040 -14.2815  10.1848 C.3            1 <1>                0.0000
      3 C3           0.5007 -14.3268   8.9507 C.3            1 <1>                0.0000
      4 C4           1.1207 -15.2494   7.8801 C.3            1 <1>                0.0000
      5 N5           0.4805 -16.5713   7.8993 N.4            1 <1>                1.0000
      6 C6           0.8051 -14.5057   6.5555 C.3            1 <1>                0.0000
      7 C7           0.9369 -13.0249   6.9911 C.3            1 <1>                0.0000
      8 N8           0.3926 -12.9845   8.3606 N.am           1 <1>                0.0000
      9 C9          -0.1197 -11.8973   8.9706 C.2            1 <1>                0.0000
     10 O10         -0.2421 -10.8567   8.3554 O.2            1 <1>                0.0000
     11 O11         -0.4957 -11.9643  10.2617 O.3            1 <1>                0.0000
     12 C12         -1.4489 -10.9708  10.7230 C.3            1 <1>                0.0000
     13 C13         -2.6438 -10.9286   9.7684 C.3            1 <1>                0.0000
     14 C14         -1.9308 -11.3402  12.1273 C.3            1 <1>                0.0000
     15 C15         -0.7764  -9.5971  10.7594 C.3            1 <1>                0.0000
     16 H16          1.4985 -15.2012  12.1305 H              1 <1>                0.0000
     17 H17         -0.1473 -14.7932  11.5892 H              1 <1>                0.0000
     18 H18          0.6993 -16.1924  10.8866 H              1 <1>                0.0000
     19 H19          1.4651 -13.2573  10.5529 H              1 <1>                0.0000
     20 H20          2.4011 -14.6318   9.9183 H              1 <1>                0.0000
     21 H21         -0.4877 -14.6930   9.2281 H              1 <1>                0.0000
     22 H22          2.1969 -15.3414   8.0268 H              1 <1>                0.0000
     23 H23          1.5354 -14.7527   5.7851 H              1 <1>                0.0000
     24 H24         -0.2075 -14.7244   6.2163 H              1 <1>                0.0000
     25 H25          1.9836 -12.7208   6.9898 H              1 <1>                0.0000
     26 H26          0.3534 -12.3821   6.3319 H              1 <1>                0.0000
     27 H27         -3.1229 -11.9073   9.7424 H              1 <1>                0.0000
     28 H28         -3.3593 -10.1829  10.1147 H              1 <1>                0.0000
     29 H29         -2.3004 -10.6656   8.7679 H              1 <1>                0.0000
     30 H30         -1.0796 -11.3702  12.8075 H              1 <1>                0.0000
     31 H31         -2.6463 -10.5943  12.4737 H              1 <1>                0.0000
     32 H32         -2.4099 -12.3189  12.1014 H              1 <1>                0.0000
     33 H33         -0.4329  -9.3340   9.7589 H              1 <1>                0.0000
     34 H34         -1.4919  -8.8514  11.1057 H              1 <1>                0.0000
     35 H35          0.0750  -9.6272  11.4395 H              1 <1>                0.0000
     36 H36          1.0496 -17.2130   8.4308 H              1 <1>                0.0000
     37 H37         -0.4309 -16.4974   8.3259 H              1 <1>                0.0000
     38 H38          0.3829 -16.9115   6.9544 H              1 <1>                0.0000
@<TRIPOS>BOND
    1    1    2 1     
    2    1   16 1     
    3    1   17 1     
    4    1   18 1     
    5    2    3 1     
    6    2   19 1     
    7    2   20 1     
    8    3    4 1     
    9    3    8 1     
   10    3   21 1     
   11    4    5 1     
   12    4    6 1     
   13    4   22 1     
   14    5   36 1     
   15    5   37 1     
   16    5   38 1     
   17    6    7 1     
   18    6   23 1     
   19    6   24 1     
   20    7    8 1     
   21    7   25 1     
   22    7   26 1     
   23    8    9 am    
   24    9   10 2     
   25    9   11 1     
   26   11   12 1     
   27   12   13 1     
   28   12   14 1     
   29   12   15 1     
   30   13   27 1     
   31   13   28 1     
   32   13   29 1     
   33   14   30 1     
   34   14   31 1     
   35   14   32 1     
   36   15   33 1     
   37   15   34 1     
   38   15   35 1     
@<TRIPOS>SUBSTRUCTURE
      1 ****           1
@<TRIPOS>SET
DONOR_HYDROGENS      STATIC     ATOMS    <user>   **** ""
3 36 37 38
ATOM$RED        STATIC     ATOMS    COLORGROUP SYSTEM
3 36 37 38
@<TRIPOS>COMMENT
> <Gold.Version>
2022.2.0

> <Gold.Id.Protein>
3pbl|protein|mol2

> <Gold.Protein.RotatedTorsions>
[ 1303 1298 1297 1294 ] final -131.71 input  179.99 | X-H torsion
[ 2461 2456 2455 2452 ] final -120.99 input   30.03 | X-H torsion
[ 2515 2510 2509 2506 ] final  113.55 input  -89.99 | X-H torsion
[ 3721 3712 3711 3710 ] final  115.48 input -179.91 | X-H torsion
[ 3841 3832 3831 3830 ] final   -8.04 input -179.91 | X-H torsion
[ 3767 3762 3761 3758 ] final   62.89 input  -89.99 | X-H torsion
[ 2472 2467 2466 2463 ] final -175.28 input  -89.97 | X-H torsion

> <Gold.Protein.ActiveResidues>
 VAL82   VAL86   LEU89   PHE106  VAL107  ASP110  VAL111  MET112  CYS114  THR115 
 CYS181  SER182  ILE183  PHE188  VAL189  ILE190  SER192  SER193  SER196  TRP342 
 PHE345  PHE346  HIS349  VAL350  TYR365  THR369  GLY372  TYR373 

> <Gold.Protein.RotatedAtoms>
    4.3896   -8.4842    4.2059 H   0  0  0  0  0  0  0  0  0  0  0  0  # atno 1303 bound_to 1298
    0.5864   -9.1806    8.0632 H   0  0  0  0  0  0  0  0  0  0  0  0  # atno 2461 bound_to 2456
   -5.3005   -5.4040    9.0795 H   0  0  0  0  0  0  0  0  0  0  0  0  # atno 2472 bound_to 2467
    2.0327   -8.0650    6.0355 H   0  0  0  0  0  0  0  0  0  0  0  0  # atno 2515 bound_to 2510
   -2.9751  -17.2925   13.0313 H   0  0  0  0  0  0  0  0  0  0  0  0  # atno 3721 bound_to 3712
   -4.5294  -23.2939   10.2171 H   0  0  0  0  0  0  0  0  0  0  0  0  # atno 3767 bound_to 3762
    1.6735  -20.3932    9.5139 H   0  0  0  0  0  0  0  0  0  0  0  0  # atno 3841 bound_to 3832
    4.6307   -9.9265    4.9325 LP  0  0  0  0  0  0  0  0  0  0  0  0  # atno 4297 bound_to 1298
    3.3418   -9.7109    3.9532 LP  0  0  0  0  0  0  0  0  0  0  0  0  # atno 4298 bound_to 1298
    2.1254   -8.6340    8.0543 LP  0  0  0  0  0  0  0  0  0  0  0  0  # atno 4299 bound_to 2456
    1.0257   -7.9938    7.0308 LP  0  0  0  0  0  0  0  0  0  0  0  0  # atno 4300 bound_to 2456
    2.5838   -7.7007    4.5424 LP  0  0  0  0  0  0  0  0  0  0  0  0  # atno 4301 bound_to 2510
    2.6804   -9.2336    5.0970 LP  0  0  0  0  0  0  0  0  0  0  0  0  # atno 4302 bound_to 2510
   -2.6423  -18.0899   14.3845 LP  0  0  0  0  0  0  0  0  0  0  0  0  # atno 4306 bound_to 3712
   -3.4505  -16.6718   14.4337 LP  0  0  0  0  0  0  0  0  0  0  0  0  # atno 4307 bound_to 3712
    2.2662  -19.6851    8.2012 LP  0  0  0  0  0  0  0  0  0  0  0  0  # atno 4314 bound_to 3832
    3.0300  -20.9629    8.8724 LP  0  0  0  0  0  0  0  0  0  0  0  0  # atno 4315 bound_to 3832
   -5.4760  -22.0836   10.7702 LP  0  0  0  0  0  0  0  0  0  0  0  0  # atno 4318 bound_to 3762
   -4.1219  -22.4978   11.5835 LP  0  0  0  0  0  0  0  0  0  0  0  0  # atno 4319 bound_to 3762
   -4.7200   -4.8297    7.6654 LP  0  0  0  0  0  0  0  0  0  0  0  0  # atno 4320 bound_to 2467
   -3.6966   -5.1600    8.8943 LP  0  0  0  0  0  0  0  0  0  0  0  0  # atno 4321 bound_to 2467

> <Gold.Score>
     Score     S(PLP)   S(hbond)     S(cho)   S(metal)  DE(clash)   DE(tors)     intcor
     53.90     -46.39       2.98       0.00       0.00       0.00       0.96       0.47

> <Gold.PLP.Fitness>
53.8958

> <Gold.PLP.PLP>
-46.3854

> <Gold.PLP.part.hbond>
-2.0000

> <Gold.PLP.part.metal>
0.0000

> <Gold.PLP.part.buried>
-2.9292

> <Gold.PLP.part.nonpolar>
-42.8144

> <Gold.PLP.part.repulsive>
0.0031

> <Gold.PLP.ligand.clash>
0.0000

> <Gold.PLP.ligand.torsion>
0.9567

> <Gold.PLP.Chemscore.Hbond>
2.9840

> <Gold.PLP.Chemscore.CHOScore>
0.0000

> <Gold.PLP.Chemscore.Metal>
0.0000

> <Gold.Chemscore.Hbonds>
donor molecule, donor type, donor heavy atom, donor atom, acceptor molecule, acceptor atom, score
      L1  H     5    36       P1  1227  1.98
      P1  H  2456  2461       L1    10  1.00

> <Gold.PLP.Chemscore.Internal.Correction>
0.4717

