#       Name:                EN300-312564_i001
#       Creating user name   fsindt
#       Creation time:       Mon Feb 27 20:44:39 2023


#       File generated by GOLD software.
#

@<TRIPOS>MOLECULE
EN300-312564_i001|amine_3|mol2|696|dock8
    38    38     1
SMALL
USER_CHARGES


@<TRIPOS>ATOM
      1 C1           1.3550 -17.1043  14.9974 C.3            1 <1>                0.0000
      2 C2           2.4112 -17.2432  13.8993 C.3            1 <1>                0.0000
      3 C3           1.7537 -17.0474  12.5316 C.3            1 <1>                0.0000
      4 C4           1.7965 -15.5560  12.1374 C.3            1 <1>                0.0000
      5 N5           2.8950 -15.2984  11.1967 N.4            1 <1>                1.0000
      6 C6           0.4227 -15.3388  11.4498 C.3            1 <1>                0.0000
      7 C7          -0.4942 -16.2649  12.2873 C.3            1 <1>                0.0000
      8 N8           0.3387 -17.4415  12.5961 N.am           1 <1>                0.0000
      9 C9          -0.1208 -18.6742  12.8887 C.2            1 <1>                0.0000
     10 O10         -1.3112 -18.9097  12.8258 O.2            1 <1>                0.0000
     11 O11          0.7392 -19.6448  13.2509 O.3            1 <1>                0.0000
     12 C12          0.2571 -21.0127  13.1801 C.3            1 <1>                0.0000
     13 C13          1.4158 -21.9761  13.4451 C.3            1 <1>                0.0000
     14 C14         -0.8329 -21.2243  14.2327 C.3            1 <1>                0.0000
     15 C15         -0.3194 -21.2789  11.7881 C.3            1 <1>                0.0000
     16 H16          1.8097 -17.3084  15.9667 H              1 <1>                0.0000
     17 H17          0.9545 -16.0906  14.9903 H              1 <1>                0.0000
     18 H18          0.5482 -17.8149  14.8176 H              1 <1>                0.0000
     19 H19          3.1849 -16.4887  14.0417 H              1 <1>                0.0000
     20 H20          2.8583 -18.2359  13.9487 H              1 <1>                0.0000
     21 H21          2.2732 -17.6441  11.7819 H              1 <1>                0.0000
     22 H22          1.8921 -14.9259  13.0217 H              1 <1>                0.0000
     23 H23          0.1057 -14.2990  11.5300 H              1 <1>                0.0000
     24 H24          0.4526 -15.6572  10.4077 H              1 <1>                0.0000
     25 H25         -0.8005 -15.7652  13.2062 H              1 <1>                0.0000
     26 H26         -1.3676 -16.5605  11.7059 H              1 <1>                0.0000
     27 H27          1.8266 -21.7864  14.4367 H              1 <1>                0.0000
     28 H28          1.0540 -23.0028  13.3920 H              1 <1>                0.0000
     29 H29          2.1924 -21.8253  12.6952 H              1 <1>                0.0000
     30 H30         -1.6584 -20.5380  14.0439 H              1 <1>                0.0000
     31 H31         -1.1948 -22.2511  14.1795 H              1 <1>                0.0000
     32 H32         -0.4222 -21.0346  15.2243 H              1 <1>                0.0000
     33 H33          0.4572 -21.1280  11.0383 H              1 <1>                0.0000
     34 H34         -0.6812 -22.3057  11.7351 H              1 <1>                0.0000
     35 H35         -1.1449 -20.5925  11.5994 H              1 <1>                0.0000
     36 H36          3.7778 -15.3956  11.6758 H              1 <1>                0.0000
     37 H37          2.8498 -15.9612  10.4372 H              1 <1>                0.0000
     38 H38          2.8121 -14.3617  10.8310 H              1 <1>                0.0000
@<TRIPOS>BOND
    1    1    2 1     
    2    1   16 1     
    3    1   17 1     
    4    1   18 1     
    5    2    3 1     
    6    2   19 1     
    7    2   20 1     
    8    3    4 1     
    9    3    8 1     
   10    3   21 1     
   11    4    5 1     
   12    4    6 1     
   13    4   22 1     
   14    5   36 1     
   15    5   37 1     
   16    5   38 1     
   17    6    7 1     
   18    6   23 1     
   19    6   24 1     
   20    7    8 1     
   21    7   25 1     
   22    7   26 1     
   23    8    9 am    
   24    9   10 2     
   25    9   11 1     
   26   11   12 1     
   27   12   13 1     
   28   12   14 1     
   29   12   15 1     
   30   13   27 1     
   31   13   28 1     
   32   13   29 1     
   33   14   30 1     
   34   14   31 1     
   35   14   32 1     
   36   15   33 1     
   37   15   34 1     
   38   15   35 1     
@<TRIPOS>SUBSTRUCTURE
      1 ****           1
@<TRIPOS>SET
DONOR_HYDROGENS      STATIC     ATOMS    <user>   **** ""
3 36 37 38
ATOM$RED        STATIC     ATOMS    COLORGROUP SYSTEM
3 36 37 38
@<TRIPOS>COMMENT
> <Gold.Version>
2022.2.0

> <Gold.Id.Protein>
3pbl|protein|mol2

> <Gold.Protein.RotatedTorsions>
[ 1303 1298 1297 1294 ] final   13.52 input  179.99 | X-H torsion
[ 2461 2456 2455 2452 ] final  -12.91 input   30.03 | X-H torsion
[ 2515 2510 2509 2506 ] final  126.40 input  -89.99 | X-H torsion
[ 3721 3712 3711 3710 ] final   63.98 input -179.91 | X-H torsion
[ 3841 3832 3831 3830 ] final  -85.84 input -179.91 | X-H torsion
[ 3767 3762 3761 3758 ] final   48.99 input  -89.99 | X-H torsion
[ 2472 2467 2466 2463 ] final -141.05 input  -89.97 | X-H torsion

> <Gold.Protein.ActiveResidues>
 VAL82   VAL86   LEU89   PHE106  VAL107  ASP110  VAL111  MET112  CYS114  THR115 
 CYS181  SER182  ILE183  PHE188  VAL189  ILE190  SER192  SER193  SER196  TRP342 
 PHE345  PHE346  HIS349  VAL350  TYR365  THR369  GLY372  TYR373 

> <Gold.Protein.RotatedAtoms>
    3.4753  -10.0333    4.1717 H   0  0  0  0  0  0  0  0  0  0  0  0  # atno 1303 bound_to 1298
    0.8467   -8.0719    7.0465 H   0  0  0  0  0  0  0  0  0  0  0  0  # atno 2461 bound_to 2456
   -4.8420   -5.4641    9.3862 H   0  0  0  0  0  0  0  0  0  0  0  0  # atno 2472 bound_to 2467
    2.0551   -8.2685    6.0864 H   0  0  0  0  0  0  0  0  0  0  0  0  # atno 2515 bound_to 2510
   -2.6129  -17.8773   13.3367 H   0  0  0  0  0  0  0  0  0  0  0  0  # atno 3721 bound_to 3712
   -4.7226  -23.2168   10.1230 H   0  0  0  0  0  0  0  0  0  0  0  0  # atno 3767 bound_to 3762
    1.8092  -19.6327    8.7490 H   0  0  0  0  0  0  0  0  0  0  0  0  # atno 3841 bound_to 3832
    4.0472   -8.5159    3.9796 LP  0  0  0  0  0  0  0  0  0  0  0  0  # atno 4297 bound_to 1298
    4.8400   -9.5719    4.9404 LP  0  0  0  0  0  0  0  0  0  0  0  0  # atno 4298 bound_to 1298
    0.7321   -9.2444    8.1777 LP  0  0  0  0  0  0  0  0  0  0  0  0  # atno 4299 bound_to 2456
    2.1588   -8.4917    7.9238 LP  0  0  0  0  0  0  0  0  0  0  0  0  # atno 4300 bound_to 2456
    2.4968   -7.5665    4.6800 LP  0  0  0  0  0  0  0  0  0  0  0  0  # atno 4301 bound_to 2510
    2.7450   -9.1642    4.9085 LP  0  0  0  0  0  0  0  0  0  0  0  0  # atno 4302 bound_to 2510
   -2.9517  -17.4771   14.8543 LP  0  0  0  0  0  0  0  0  0  0  0  0  # atno 4306 bound_to 3712
   -3.5593  -16.6096   13.6113 LP  0  0  0  0  0  0  0  0  0  0  0  0  # atno 4307 bound_to 3712
    3.1102  -20.5132    8.4200 LP  0  0  0  0  0  0  0  0  0  0  0  0  # atno 4314 bound_to 3832
    2.0293  -21.0134    9.5372 LP  0  0  0  0  0  0  0  0  0  0  0  0  # atno 4315 bound_to 3832
   -5.3970  -21.9889   10.9623 LP  0  0  0  0  0  0  0  0  0  0  0  0  # atno 4318 bound_to 3762
   -4.0078  -22.6695   11.4855 LP  0  0  0  0  0  0  0  0  0  0  0  0  # atno 4319 bound_to 3762
   -5.2153   -4.9609    7.8783 LP  0  0  0  0  0  0  0  0  0  0  0  0  # atno 4320 bound_to 2467
   -3.6597   -4.9687    8.3748 LP  0  0  0  0  0  0  0  0  0  0  0  0  # atno 4321 bound_to 2467

> <Gold.Score>
     Score     S(PLP)   S(hbond)     S(cho)   S(metal)  DE(clash)   DE(tors)     intcor
     41.58     -33.50       3.00       0.00       0.00       0.00       0.68       0.44

> <Gold.PLP.Fitness>
41.5830

> <Gold.PLP.PLP>
-33.5045

> <Gold.PLP.part.hbond>
-2.0000

> <Gold.PLP.part.metal>
0.0000

> <Gold.PLP.part.buried>
-3.2041

> <Gold.PLP.part.nonpolar>
-29.6397

> <Gold.PLP.part.repulsive>
0.0680

> <Gold.PLP.ligand.clash>
0.0000

> <Gold.PLP.ligand.torsion>
0.6820

> <Gold.PLP.Chemscore.Hbond>
3.0000

> <Gold.PLP.Chemscore.CHOScore>
0.0000

> <Gold.PLP.Chemscore.Metal>
0.0000

> <Gold.Chemscore.Hbonds>
donor molecule, donor type, donor heavy atom, donor atom, acceptor molecule, acceptor atom, score
      L1  H     5    37       P1  1227  2.00
      P1  H  3712  3721       L1    10  1.00

> <Gold.PLP.Chemscore.Internal.Correction>
0.4425

