#       Name:                EN300-312564_i001
#       Creating user name   fsindt
#       Creation time:       Mon Feb 27 20:44:36 2023


#       File generated by GOLD software.
#

@<TRIPOS>MOLECULE
EN300-312564_i001|amine_3|mol2|696|dock5
    38    38     1
SMALL
USER_CHARGES


@<TRIPOS>ATOM
      1 C1           2.5966 -17.2018  14.7804 C.3            1 <1>                0.0000
      2 C2           2.7103 -17.4098  13.2689 C.3            1 <1>                0.0000
      3 C3           1.4043 -16.9829  12.5957 C.3            1 <1>                0.0000
      4 C4           1.4188 -15.4611  12.3397 C.3            1 <1>                0.0000
      5 N5           1.7634 -15.1725  10.9412 N.4            1 <1>                1.0000
      6 C6          -0.0447 -15.0439  12.6418 C.3            1 <1>                0.0000
      7 C7          -0.4040 -15.9941  13.8113 C.3            1 <1>                0.0000
      8 N8           0.2679 -17.2652  13.4849 N.am           1 <1>                0.0000
      9 C9          -0.0990 -18.4841  13.9278 C.2            1 <1>                0.0000
     10 O10         -1.1109 -18.6112  14.5883 O.2            1 <1>                0.0000
     11 O11          0.6559 -19.5607  13.6384 O.3            1 <1>                0.0000
     12 C12          0.4169 -20.7621  14.4183 C.3            1 <1>                0.0000
     13 C13          1.4830 -21.8074  14.0842 C.3            1 <1>                0.0000
     14 C14          0.4837 -20.4240  15.9089 C.3            1 <1>                0.0000
     15 C15         -0.9676 -21.3204  14.0835 C.3            1 <1>                0.0000
     16 H16          3.5014 -17.5668  15.2664 H              1 <1>                0.0000
     17 H17          2.4732 -16.1399  14.9928 H              1 <1>                0.0000
     18 H18          1.7342 -17.7506  15.1588 H              1 <1>                0.0000
     19 H19          3.5326 -16.8090  12.8802 H              1 <1>                0.0000
     20 H20          2.8993 -18.4627  13.0602 H              1 <1>                0.0000
     21 H21          1.2817 -17.5161  11.6530 H              1 <1>                0.0000
     22 H22          2.1124 -14.9627  13.0171 H              1 <1>                0.0000
     23 H23         -0.0971 -14.0014  12.9555 H              1 <1>                0.0000
     24 H24         -0.6881 -15.2239  11.7805 H              1 <1>                0.0000
     25 H25         -0.0262 -15.5963  14.7531 H              1 <1>                0.0000
     26 H26         -1.4831 -16.1385  13.8652 H              1 <1>                0.0000
     27 H27          2.4693 -21.4096  14.3227 H              1 <1>                0.0000
     28 H28          1.3036 -22.7091  14.6696 H              1 <1>                0.0000
     29 H29          1.4354 -22.0482  13.0222 H              1 <1>                0.0000
     30 H30         -0.2758 -19.6792  16.1470 H              1 <1>                0.0000
     31 H31          0.3043 -21.3257  16.4944 H              1 <1>                0.0000
     32 H32          1.4701 -20.0261  16.1475 H              1 <1>                0.0000
     33 H33         -1.0152 -21.5612  13.0215 H              1 <1>                0.0000
     34 H34         -1.1469 -22.2222  14.6689 H              1 <1>                0.0000
     35 H35         -1.7271 -20.5756  14.3215 H              1 <1>                0.0000
     36 H36          1.0852 -14.5345  10.5525 H              1 <1>                0.0000
     37 H37          2.6808 -14.7544  10.9003 H              1 <1>                0.0000
     38 H38          1.7609 -16.0305  10.4103 H              1 <1>                0.0000
@<TRIPOS>BOND
    1    1    2 1     
    2    1   16 1     
    3    1   17 1     
    4    1   18 1     
    5    2    3 1     
    6    2   19 1     
    7    2   20 1     
    8    3    4 1     
    9    3    8 1     
   10    3   21 1     
   11    4    5 1     
   12    4    6 1     
   13    4   22 1     
   14    5   36 1     
   15    5   37 1     
   16    5   38 1     
   17    6    7 1     
   18    6   23 1     
   19    6   24 1     
   20    7    8 1     
   21    7   25 1     
   22    7   26 1     
   23    8    9 am    
   24    9   10 2     
   25    9   11 1     
   26   11   12 1     
   27   12   13 1     
   28   12   14 1     
   29   12   15 1     
   30   13   27 1     
   31   13   28 1     
   32   13   29 1     
   33   14   30 1     
   34   14   31 1     
   35   14   32 1     
   36   15   33 1     
   37   15   34 1     
   38   15   35 1     
@<TRIPOS>SUBSTRUCTURE
      1 ****           1
@<TRIPOS>SET
DONOR_HYDROGENS      STATIC     ATOMS    <user>   **** ""
3 36 37 38
ATOM$RED        STATIC     ATOMS    COLORGROUP SYSTEM
3 36 37 38
@<TRIPOS>COMMENT
> <Gold.Version>
2022.2.0

> <Gold.Id.Protein>
3pbl|protein|mol2

> <Gold.Protein.RotatedTorsions>
[ 1303 1298 1297 1294 ] final   38.51 input  179.99 | X-H torsion
[ 2461 2456 2455 2452 ] final  100.49 input   30.03 | X-H torsion
[ 2515 2510 2509 2506 ] final   54.81 input  -89.99 | X-H torsion
[ 3721 3712 3711 3710 ] final   20.50 input -179.91 | X-H torsion
[ 3841 3832 3831 3830 ] final  139.32 input -179.91 | X-H torsion
[ 3767 3762 3761 3758 ] final  -20.95 input  -89.99 | X-H torsion
[ 2472 2467 2466 2463 ] final  124.71 input  -89.97 | X-H torsion

> <Gold.Protein.ActiveResidues>
 VAL82   VAL86   LEU89   PHE106  VAL107  ASP110  VAL111  MET112  CYS114  THR115 
 CYS181  SER182  ILE183  PHE188  VAL189  ILE190  SER192  SER193  SER196  TRP342 
 PHE345  PHE346  HIS349  VAL350  TYR365  THR369  GLY372  TYR373 

> <Gold.Protein.RotatedAtoms>
    3.7290  -10.2290    4.4240 H   0  0  0  0  0  0  0  0  0  0  0  0  # atno 1303 bound_to 1298
    2.1607   -8.4145    7.8474 H   0  0  0  0  0  0  0  0  0  0  0  0  # atno 2461 bound_to 2456
   -5.4480   -5.1026    8.1982 H   0  0  0  0  0  0  0  0  0  0  0  0  # atno 2472 bound_to 2467
    2.1773   -7.4377    5.3720 H   0  0  0  0  0  0  0  0  0  0  0  0  # atno 2515 bound_to 2510
   -2.4711  -18.0306   13.9435 H   0  0  0  0  0  0  0  0  0  0  0  0  # atno 3721 bound_to 3712
   -5.4670  -22.4586   10.3212 H   0  0  0  0  0  0  0  0  0  0  0  0  # atno 3767 bound_to 3762
    3.1330  -20.5286    8.7315 H   0  0  0  0  0  0  0  0  0  0  0  0  # atno 3841 bound_to 3832
    3.7212   -8.7088    3.8280 LP  0  0  0  0  0  0  0  0  0  0  0  0  # atno 4297 bound_to 1298
    4.9121   -9.1831    4.8396 LP  0  0  0  0  0  0  0  0  0  0  0  0  # atno 4298 bound_to 1298
    0.7548   -8.1256    7.0679 LP  0  0  0  0  0  0  0  0  0  0  0  0  # atno 4299 bound_to 2456
    0.8226   -9.2680    8.2328 LP  0  0  0  0  0  0  0  0  0  0  0  0  # atno 4300 bound_to 2456
    2.8307   -8.5817    4.4076 LP  0  0  0  0  0  0  0  0  0  0  0  0  # atno 4301 bound_to 2510
    2.2888   -8.9802    5.8956 LP  0  0  0  0  0  0  0  0  0  0  0  0  # atno 4302 bound_to 2510
   -3.3059  -16.8835   14.6953 LP  0  0  0  0  0  0  0  0  0  0  0  0  # atno 4306 bound_to 3712
   -3.3687  -17.0262   13.0698 LP  0  0  0  0  0  0  0  0  0  0  0  0  # atno 4307 bound_to 3712
    1.7839  -20.8473    9.5405 LP  0  0  0  0  0  0  0  0  0  0  0  0  # atno 4314 bound_to 3832
    1.8263  -19.6443    8.4370 LP  0  0  0  0  0  0  0  0  0  0  0  0  # atno 4315 bound_to 3832
   -4.5574  -22.1098   11.6319 LP  0  0  0  0  0  0  0  0  0  0  0  0  # atno 4318 bound_to 3762
   -4.1032  -23.3065   10.6178 LP  0  0  0  0  0  0  0  0  0  0  0  0  # atno 4319 bound_to 3762
   -3.8441   -4.8587    8.0133 LP  0  0  0  0  0  0  0  0  0  0  0  0  # atno 4320 bound_to 2467
   -4.4250   -5.4323    9.4275 LP  0  0  0  0  0  0  0  0  0  0  0  0  # atno 4321 bound_to 2467

> <Gold.Score>
     Score     S(PLP)   S(hbond)     S(cho)   S(metal)  DE(clash)   DE(tors)     intcor
     45.07     -36.70       3.00       0.00       0.00       0.00       0.55       0.47

> <Gold.PLP.Fitness>
45.0736

> <Gold.PLP.PLP>
-36.7031

> <Gold.PLP.part.hbond>
-1.8669

> <Gold.PLP.part.metal>
0.0000

> <Gold.PLP.part.buried>
-3.4027

> <Gold.PLP.part.nonpolar>
-32.1136

> <Gold.PLP.part.repulsive>
0.0173

> <Gold.PLP.ligand.clash>
0.0000

> <Gold.PLP.ligand.torsion>
0.5506

> <Gold.PLP.Chemscore.Hbond>
3.0000

> <Gold.PLP.Chemscore.CHOScore>
0.0000

> <Gold.PLP.Chemscore.Metal>
0.0000

> <Gold.Chemscore.Hbonds>
donor molecule, donor type, donor heavy atom, donor atom, acceptor molecule, acceptor atom, score
      L1  H     5    38       P1  1227  2.00
      P1  H  3712  3721       L1    10  1.00

> <Gold.PLP.Chemscore.Internal.Correction>
0.4717

