#       Name:                EN300-312564_i001
#       Creating user name   fsindt
#       Creation time:       Mon Feb 27 20:44:41 2023


#       File generated by GOLD software.
#

@<TRIPOS>MOLECULE
EN300-312564_i001|amine_3|mol2|696|dock10
    38    38     1
SMALL
USER_CHARGES


@<TRIPOS>ATOM
      1 C1          -0.2511 -15.4058  12.1218 C.3            1 <1>                0.0000
      2 C2          -0.7009 -16.8631  11.9993 C.3            1 <1>                0.0000
      3 C3          -0.0433 -17.4983  10.7724 C.3            1 <1>                0.0000
      4 C4          -0.5756 -16.8307   9.4869 C.3            1 <1>                0.0000
      5 N5           0.3809 -15.8359   8.9835 N.4            1 <1>                1.0000
      6 C6          -0.6977 -18.0227   8.5013 C.3            1 <1>                0.0000
      7 C7          -1.1344 -19.1671   9.4497 C.3            1 <1>                0.0000
      8 N8          -0.3923 -18.9247  10.7003 N.am           1 <1>                0.0000
      9 C9          -0.0845 -19.8564  11.6243 C.2            1 <1>                0.0000
     10 O10         -0.3457 -21.0251  11.4190 O.2            1 <1>                0.0000
     11 O11          0.5122 -19.4919  12.7749 O.3            1 <1>                0.0000
     12 C12          0.4953 -20.4562  13.8604 C.3            1 <1>                0.0000
     13 C13          1.3694 -21.6561  13.4903 C.3            1 <1>                0.0000
     14 C14          1.0390 -19.8020  15.1321 C.3            1 <1>                0.0000
     15 C15         -0.9404 -20.9264  14.1025 C.3            1 <1>                0.0000
     16 H16         -0.7697 -14.9345  12.9566 H              1 <1>                0.0000
     17 H17          0.8244 -15.3709  12.2959 H              1 <1>                0.0000
     18 H18         -0.4874 -14.8739  11.2002 H              1 <1>                0.0000
     19 H19         -0.4058 -17.4109  12.8942 H              1 <1>                0.0000
     20 H20         -1.7847 -16.9009  11.8910 H              1 <1>                0.0000
     21 H21          1.0389 -17.3816  10.8299 H              1 <1>                0.0000
     22 H22         -1.5486 -16.3727   9.6648 H              1 <1>                0.0000
     23 H23         -1.4595 -17.8290   7.7463 H              1 <1>                0.0000
     24 H24          0.2629 -18.2456   8.0367 H              1 <1>                0.0000
     25 H25         -2.2083 -19.1208   9.6307 H              1 <1>                0.0000
     26 H26         -0.8613 -20.1344   9.0280 H              1 <1>                0.0000
     27 H27          2.3922 -21.3211  13.3177 H              1 <1>                0.0000
     28 H28          1.3568 -22.3799  14.3051 H              1 <1>                0.0000
     29 H29          0.9820 -22.1221  12.5843 H              1 <1>                0.0000
     30 H30          0.4162 -18.9472  15.3958 H              1 <1>                0.0000
     31 H31          1.0263 -20.5259  15.9469 H              1 <1>                0.0000
     32 H32          2.0618 -19.4670  14.9596 H              1 <1>                0.0000
     33 H33         -1.3278 -21.3924  13.1964 H              1 <1>                0.0000
     34 H34         -0.9530 -21.6503  14.9173 H              1 <1>                0.0000
     35 H35         -1.5632 -20.0716  14.3661 H              1 <1>                0.0000
     36 H36          0.2978 -14.9868   9.5223 H              1 <1>                0.0000
     37 H37          1.3188 -16.1980   9.0688 H              1 <1>                0.0000
     38 H38          0.1830 -15.6397   8.0138 H              1 <1>                0.0000
@<TRIPOS>BOND
    1    1    2 1     
    2    1   16 1     
    3    1   17 1     
    4    1   18 1     
    5    2    3 1     
    6    2   19 1     
    7    2   20 1     
    8    3    4 1     
    9    3    8 1     
   10    3   21 1     
   11    4    5 1     
   12    4    6 1     
   13    4   22 1     
   14    5   36 1     
   15    5   37 1     
   16    5   38 1     
   17    6    7 1     
   18    6   23 1     
   19    6   24 1     
   20    7    8 1     
   21    7   25 1     
   22    7   26 1     
   23    8    9 am    
   24    9   10 2     
   25    9   11 1     
   26   11   12 1     
   27   12   13 1     
   28   12   14 1     
   29   12   15 1     
   30   13   27 1     
   31   13   28 1     
   32   13   29 1     
   33   14   30 1     
   34   14   31 1     
   35   14   32 1     
   36   15   33 1     
   37   15   34 1     
   38   15   35 1     
@<TRIPOS>SUBSTRUCTURE
      1 ****           1
@<TRIPOS>SET
DONOR_HYDROGENS      STATIC     ATOMS    <user>   **** ""
3 36 37 38
ATOM$RED        STATIC     ATOMS    COLORGROUP SYSTEM
3 36 37 38
@<TRIPOS>COMMENT
> <Gold.Version>
2022.2.0

> <Gold.Id.Protein>
3pbl|protein|mol2

> <Gold.Protein.RotatedTorsions>
[ 1303 1298 1297 1294 ] final  -31.30 input  179.99 | X-H torsion
[ 2461 2456 2455 2452 ] final  -93.20 input   30.03 | X-H torsion
[ 2515 2510 2509 2506 ] final  162.62 input  -89.99 | X-H torsion
[ 3721 3712 3711 3710 ] final   97.13 input -179.91 | X-H torsion
[ 3841 3832 3831 3830 ] final  133.27 input -179.91 | X-H torsion
[ 3767 3762 3761 3758 ] final  -73.61 input  -89.99 | X-H torsion
[ 2472 2467 2466 2463 ] final -156.45 input  -89.97 | X-H torsion

> <Gold.Protein.ActiveResidues>
 VAL82   VAL86   LEU89   PHE106  VAL107  ASP110  VAL111  MET112  CYS114  THR115 
 CYS181  SER182  ILE183  PHE188  VAL189  ILE190  SER192  SER193  SER196  TRP342 
 PHE345  PHE346  HIS349  VAL350  TYR365  THR369  GLY372  TYR373 

> <Gold.Protein.RotatedAtoms>
    3.3402   -9.4119    3.8367 H   0  0  0  0  0  0  0  0  0  0  0  0  # atno 1303 bound_to 1298
    0.3664   -8.9416    7.7476 H   0  0  0  0  0  0  0  0  0  0  0  0  # atno 2461 bound_to 2456
   -5.0708   -5.4509    9.2799 H   0  0  0  0  0  0  0  0  0  0  0  0  # atno 2472 bound_to 2467
    2.2126   -8.8259    5.9978 H   0  0  0  0  0  0  0  0  0  0  0  0  # atno 2515 bound_to 2510
   -2.8366  -17.5288   13.0670 H   0  0  0  0  0  0  0  0  0  0  0  0  # atno 3721 bound_to 3712
   -5.3772  -21.9746   10.9975 H   0  0  0  0  0  0  0  0  0  0  0  0  # atno 3767 bound_to 3762
    3.1262  -20.5944    8.7945 H   0  0  0  0  0  0  0  0  0  0  0  0  # atno 3841 bound_to 3832
    4.6239   -8.5775    4.4043 LP  0  0  0  0  0  0  0  0  0  0  0  0  # atno 4297 bound_to 1298
    4.3983  -10.1319    4.8508 LP  0  0  0  0  0  0  0  0  0  0  0  0  # atno 4298 bound_to 1298
    1.9058   -8.9498    8.2931 LP  0  0  0  0  0  0  0  0  0  0  0  0  # atno 4299 bound_to 2456
    1.4653   -7.9169    7.1075 LP  0  0  0  0  0  0  0  0  0  0  0  0  # atno 4300 bound_to 2456
    2.2489   -7.4090    5.1873 LP  0  0  0  0  0  0  0  0  0  0  0  0  # atno 4301 bound_to 2510
    2.8353   -8.7641    4.4898 LP  0  0  0  0  0  0  0  0  0  0  0  0  # atno 4302 bound_to 2510
   -2.7218  -17.9144   14.6213 LP  0  0  0  0  0  0  0  0  0  0  0  0  # atno 4306 bound_to 3712
   -3.5309  -16.5746   14.1556 LP  0  0  0  0  0  0  0  0  0  0  0  0  # atno 4307 bound_to 3712
    1.7098  -20.7801    9.5262 LP  0  0  0  0  0  0  0  0  0  0  0  0  # atno 4314 bound_to 3832
    1.9083  -19.6355    8.3785 LP  0  0  0  0  0  0  0  0  0  0  0  0  # atno 4315 bound_to 3832
   -3.9910  -22.7015   11.4630 LP  0  0  0  0  0  0  0  0  0  0  0  0  # atno 4318 bound_to 3762
   -4.7594  -23.1987   10.1106 LP  0  0  0  0  0  0  0  0  0  0  0  0  # atno 4319 bound_to 3762
   -5.0110   -4.8911    7.7472 LP  0  0  0  0  0  0  0  0  0  0  0  0  # atno 4320 bound_to 2467
   -3.6352   -5.0515    8.6122 LP  0  0  0  0  0  0  0  0  0  0  0  0  # atno 4321 bound_to 2467

> <Gold.Score>
     Score     S(PLP)   S(hbond)     S(cho)   S(metal)  DE(clash)   DE(tors)     intcor
     38.70     -32.82       2.00       0.00       0.00       0.00       0.28       0.44

> <Gold.PLP.Fitness>
38.6951

> <Gold.PLP.PLP>
-32.8158

> <Gold.PLP.part.hbond>
-1.0000

> <Gold.PLP.part.metal>
0.0000

> <Gold.PLP.part.buried>
-1.8308

> <Gold.PLP.part.nonpolar>
-29.7986

> <Gold.PLP.part.repulsive>
0.0379

> <Gold.PLP.ligand.clash>
0.0000

> <Gold.PLP.ligand.torsion>
0.2780

> <Gold.PLP.Chemscore.Hbond>
2.0000

> <Gold.PLP.Chemscore.CHOScore>
0.0000

> <Gold.PLP.Chemscore.Metal>
0.0000

> <Gold.Chemscore.Hbonds>
donor molecule, donor type, donor heavy atom, donor atom, acceptor molecule, acceptor atom, score
      L1  H     5    37       P1  1227  2.00

> <Gold.PLP.Chemscore.Internal.Correction>
0.4354

