#       Name:                EN300-312564_i001
#       Creating user name   fsindt
#       Creation time:       Mon Feb 27 20:44:35 2023


#       File generated by GOLD software.
#

@<TRIPOS>MOLECULE
EN300-312564_i001|amine_3|mol2|696|dock3
    38    38     1
SMALL
USER_CHARGES


@<TRIPOS>ATOM
      1 C1          -0.0705 -15.1912  12.6387 C.3            1 <1>                0.0000
      2 C2           0.8234 -15.1939  11.3970 C.3            1 <1>                0.0000
      3 C3          -0.0493 -15.1777  10.1403 C.3            1 <1>                0.0000
      4 C4           0.6172 -16.0140   9.0277 C.3            1 <1>                0.0000
      5 N5           0.0079 -17.3481   8.9446 N.4            1 <1>                1.0000
      6 C6           0.3155 -15.1919   7.7470 C.3            1 <1>                0.0000
      7 C7           0.4022 -13.7405   8.2814 C.3            1 <1>                0.0000
      8 N8          -0.1750 -13.8022   9.6366 N.am           1 <1>                0.0000
      9 C9          -0.7269 -12.7689  10.3031 C.2            1 <1>                0.0000
     10 O10         -1.0922 -12.9133  11.4529 O.2            1 <1>                0.0000
     11 O11         -0.8736 -11.5768   9.6947 O.3            1 <1>                0.0000
     12 C12         -1.8619 -10.6701  10.2511 C.3            1 <1>                0.0000
     13 C13         -2.0637  -9.4892   9.2994 C.3            1 <1>                0.0000
     14 C14         -3.1882 -11.4107  10.4331 C.3            1 <1>                0.0000
     15 C15         -1.3751 -10.1549  11.6070 C.3            1 <1>                0.0000
     16 H16          0.5488 -15.2690  13.5323 H              1 <1>                0.0000
     17 H17         -0.6424 -14.2639  12.6727 H              1 <1>                0.0000
     18 H18         -0.7546 -16.0386  12.5958 H              1 <1>                0.0000
     19 H19          1.4621 -14.3106  11.4071 H              1 <1>                0.0000
     20 H20          1.4432 -16.0904  11.3974 H              1 <1>                0.0000
     21 H21         -1.0351 -15.5829  10.3685 H              1 <1>                0.0000
     22 H22          1.6916 -16.0920   9.1950 H              1 <1>                0.0000
     23 H23          1.0693 -15.3717   6.9806 H              1 <1>                0.0000
     24 H24         -0.6834 -15.4100   7.3690 H              1 <1>                0.0000
     25 H25          1.4412 -13.4141   8.3261 H              1 <1>                0.0000
     26 H26         -0.1806 -13.0687   7.6511 H              1 <1>                0.0000
     27 H27         -2.4103  -9.8563   8.3334 H              1 <1>                0.0000
     28 H28         -2.8055  -8.8086   9.7170 H              1 <1>                0.0000
     29 H29         -1.1187  -8.9616   9.1697 H              1 <1>                0.0000
     30 H30         -3.0445 -12.2520  11.1112 H              1 <1>                0.0000
     31 H31         -3.9300 -10.7301  10.8509 H              1 <1>                0.0000
     32 H32         -3.5349 -11.7778   9.4672 H              1 <1>                0.0000
     33 H33         -0.4302  -9.6273  11.4774 H              1 <1>                0.0000
     34 H34         -2.1170  -9.4743  12.0247 H              1 <1>                0.0000
     35 H35         -1.2313 -10.9962  12.2851 H              1 <1>                0.0000
     36 H36          0.7207 -18.0517   9.0674 H              1 <1>                0.0000
     37 H37         -0.6887 -17.4453   9.6681 H              1 <1>                0.0000
     38 H38         -0.4268 -17.4637   8.0415 H              1 <1>                0.0000
@<TRIPOS>BOND
    1    1    2 1     
    2    1   16 1     
    3    1   17 1     
    4    1   18 1     
    5    2    3 1     
    6    2   19 1     
    7    2   20 1     
    8    3    4 1     
    9    3    8 1     
   10    3   21 1     
   11    4    5 1     
   12    4    6 1     
   13    4   22 1     
   14    5   36 1     
   15    5   37 1     
   16    5   38 1     
   17    6    7 1     
   18    6   23 1     
   19    6   24 1     
   20    7    8 1     
   21    7   25 1     
   22    7   26 1     
   23    8    9 am    
   24    9   10 2     
   25    9   11 1     
   26   11   12 1     
   27   12   13 1     
   28   12   14 1     
   29   12   15 1     
   30   13   27 1     
   31   13   28 1     
   32   13   29 1     
   33   14   30 1     
   34   14   31 1     
   35   14   32 1     
   36   15   33 1     
   37   15   34 1     
   38   15   35 1     
@<TRIPOS>SUBSTRUCTURE
      1 ****           1
@<TRIPOS>SET
DONOR_HYDROGENS      STATIC     ATOMS    <user>   **** ""
3 36 37 38
ATOM$RED        STATIC     ATOMS    COLORGROUP SYSTEM
3 36 37 38
@<TRIPOS>COMMENT
> <Gold.Version>
2022.2.0

> <Gold.Id.Protein>
3pbl|protein|mol2

> <Gold.Protein.RotatedTorsions>
[ 1303 1298 1297 1294 ] final   24.39 input  179.99 | X-H torsion
[ 2461 2456 2455 2452 ] final  -21.53 input   30.03 | X-H torsion
[ 2515 2510 2509 2506 ] final   67.11 input  -89.99 | X-H torsion
[ 3721 3712 3711 3710 ] final -176.63 input -179.91 | X-H torsion
[ 3841 3832 3831 3830 ] final   22.58 input -179.91 | X-H torsion
[ 3767 3762 3761 3758 ] final   64.28 input  -89.99 | X-H torsion
[ 2472 2467 2466 2463 ] final   73.50 input  -89.97 | X-H torsion

> <Gold.Protein.ActiveResidues>
 VAL82   VAL86   LEU89   PHE106  VAL107  ASP110  VAL111  MET112  CYS114  THR115 
 CYS181  SER182  ILE183  PHE188  VAL189  ILE190  SER192  SER193  SER196  TRP342 
 PHE345  PHE346  HIS349  VAL350  TYR365  THR369  GLY372  TYR373 

> <Gold.Protein.RotatedAtoms>
    3.5731  -10.1364    4.2797 H   0  0  0  0  0  0  0  0  0  0  0  0  # atno 1303 bound_to 1298
    0.7279   -8.1430    7.0760 H   0  0  0  0  0  0  0  0  0  0  0  0  # atno 2461 bound_to 2456
   -4.8594   -4.8553    7.6918 H   0  0  0  0  0  0  0  0  0  0  0  0  # atno 2472 bound_to 2467
    2.1165   -7.5073    5.5516 H   0  0  0  0  0  0  0  0  0  0  0  0  # atno 2515 bound_to 2510
   -3.3282  -16.5892   13.5937 H   0  0  0  0  0  0  0  0  0  0  0  0  # atno 3721 bound_to 3712
   -4.5105  -23.2995   10.2287 H   0  0  0  0  0  0  0  0  0  0  0  0  # atno 3767 bound_to 3762
    1.9736  -20.7208    9.6214 H   0  0  0  0  0  0  0  0  0  0  0  0  # atno 3841 bound_to 3832
    3.8999   -8.5816    3.9028 LP  0  0  0  0  0  0  0  0  0  0  0  0  # atno 4297 bound_to 1298
    4.8893   -9.4031    4.9091 LP  0  0  0  0  0  0  0  0  0  0  0  0  # atno 4298 bound_to 1298
    0.8513   -9.2734    8.2483 LP  0  0  0  0  0  0  0  0  0  0  0  0  # atno 4299 bound_to 2456
    2.1585   -8.3916    7.8237 LP  0  0  0  0  0  0  0  0  0  0  0  0  # atno 4300 bound_to 2456
    2.8078   -8.3862    4.3619 LP  0  0  0  0  0  0  0  0  0  0  0  0  # atno 4301 bound_to 2510
    2.3725   -9.1061    5.7616 LP  0  0  0  0  0  0  0  0  0  0  0  0  # atno 4302 bound_to 2510
   -2.7523  -18.0630   13.3214 LP  0  0  0  0  0  0  0  0  0  0  0  0  # atno 4306 bound_to 3712
   -2.9329  -17.5109   14.8475 LP  0  0  0  0  0  0  0  0  0  0  0  0  # atno 4307 bound_to 3712
    1.8225  -19.6449    8.4400 LP  0  0  0  0  0  0  0  0  0  0  0  0  # atno 4314 bound_to 3832
    3.1270  -20.6247    8.5095 LP  0  0  0  0  0  0  0  0  0  0  0  0  # atno 4315 bound_to 3832
   -5.4815  -22.0949   10.7511 LP  0  0  0  0  0  0  0  0  0  0  0  0  # atno 4318 bound_to 3762
   -4.1353  -22.4809   11.5910 LP  0  0  0  0  0  0  0  0  0  0  0  0  # atno 4319 bound_to 3762
   -3.6556   -5.1090    8.7655 LP  0  0  0  0  0  0  0  0  0  0  0  0  # atno 4320 bound_to 2467
   -5.2019   -5.4291    9.1817 LP  0  0  0  0  0  0  0  0  0  0  0  0  # atno 4321 bound_to 2467

> <Gold.Score>
     Score     S(PLP)   S(hbond)     S(cho)   S(metal)  DE(clash)   DE(tors)     intcor
     43.22     -41.82       0.90       0.00       0.00       0.00       0.88       0.47

> <Gold.PLP.Fitness>
43.2207

> <Gold.PLP.PLP>
-41.8202

> <Gold.PLP.part.hbond>
-1.0000

> <Gold.PLP.part.metal>
0.0000

> <Gold.PLP.part.buried>
-0.5932

> <Gold.PLP.part.nonpolar>
-41.6330

> <Gold.PLP.part.repulsive>
0.0570

> <Gold.PLP.ligand.clash>
0.0000

> <Gold.PLP.ligand.torsion>
0.8796

> <Gold.PLP.Chemscore.Hbond>
0.8960

> <Gold.PLP.Chemscore.CHOScore>
0.0000

> <Gold.PLP.Chemscore.Metal>
0.0000

> <Gold.Chemscore.Hbonds>
donor molecule, donor type, donor heavy atom, donor atom, acceptor molecule, acceptor atom, score
      L1  H     5    36       P1  1227  0.90

> <Gold.PLP.Chemscore.Internal.Correction>
0.4717

