#       Name:                EN300-312564_i001
#       Creating user name   fsindt
#       Creation time:       Mon Feb 27 20:44:48 2023


#       File generated by GOLD software.
#

@<TRIPOS>MOLECULE
EN300-312564_i001|amine_3|mol2|696|dock16
    38    38     1
SMALL
USER_CHARGES


@<TRIPOS>ATOM
      1 C1          -0.0897 -16.2390   8.6718 C.3            1 <1>                0.0000
      2 C2          -0.5089 -16.5855  10.1018 C.3            1 <1>                0.0000
      3 C3           0.4205 -15.8794  11.0910 C.3            1 <1>                0.0000
      4 C4           0.6380 -16.7688  12.3333 C.3            1 <1>                0.0000
      5 N5           1.9242 -17.4735  12.2492 N.4            1 <1>                1.0000
      6 C6           0.6491 -15.7431  13.4974 C.3            1 <1>                0.0000
      7 C7          -0.3975 -14.7096  13.0113 C.3            1 <1>                0.0000
      8 N8          -0.1984 -14.6283  11.5528 N.am           1 <1>                0.0000
      9 C9          -0.5286 -13.5804  10.7721 C.2            1 <1>                0.0000
     10 O10         -0.4010 -13.6572   9.5662 O.2            1 <1>                0.0000
     11 O11         -0.9998 -12.4485  11.3286 O.3            1 <1>                0.0000
     12 C12         -0.9843 -11.2530  10.5046 C.3            1 <1>                0.0000
     13 C13         -1.3562 -10.0397  11.3593 C.3            1 <1>                0.0000
     14 C14          0.4155 -11.0550   9.9197 C.3            1 <1>                0.0000
     15 C15         -1.9958 -11.4047   9.3668 C.3            1 <1>                0.0000
     16 H16         -0.7096 -16.7932   7.9671 H              1 <1>                0.0000
     17 H17         -0.2173 -15.1694   8.5048 H              1 <1>                0.0000
     18 H18          0.9565 -16.5073   8.5246 H              1 <1>                0.0000
     19 H19         -1.5348 -16.2573  10.2694 H              1 <1>                0.0000
     20 H20         -0.4439 -17.6636  10.2483 H              1 <1>                0.0000
     21 H21          1.3777 -15.6682  10.6142 H              1 <1>                0.0000
     22 H22         -0.1819 -17.4778  12.4483 H              1 <1>                0.0000
     23 H23          0.3340 -16.2085  14.4312 H              1 <1>                0.0000
     24 H24          1.6318 -15.2835  13.6039 H              1 <1>                0.0000
     25 H25         -1.4059 -15.0556  13.2378 H              1 <1>                0.0000
     26 H26         -0.2157 -13.7393  13.4737 H              1 <1>                0.0000
     27 H27         -0.6356  -9.9317  12.1700 H              1 <1>                0.0000
     28 H28         -1.3445  -9.1423  10.7408 H              1 <1>                0.0000
     29 H29         -2.3534 -10.1808  11.7761 H              1 <1>                0.0000
     30 H30          0.6805 -11.9193   9.3107 H              1 <1>                0.0000
     31 H31          0.4271 -10.1576   9.3011 H              1 <1>                0.0000
     32 H32          1.1362 -10.9469  10.7303 H              1 <1>                0.0000
     33 H33         -2.9930 -11.5459   9.7836 H              1 <1>                0.0000
     34 H34         -1.9841 -10.5073   8.7483 H              1 <1>                0.0000
     35 H35         -1.7309 -12.2691   8.7579 H              1 <1>                0.0000
     36 H36          1.7812 -18.4566  12.4260 H              1 <1>                0.0000
     37 H37          2.3151 -17.3510  11.3272 H              1 <1>                0.0000
     38 H38          2.5595 -17.0971  12.9367 H              1 <1>                0.0000
@<TRIPOS>BOND
    1    1    2 1     
    2    1   16 1     
    3    1   17 1     
    4    1   18 1     
    5    2    3 1     
    6    2   19 1     
    7    2   20 1     
    8    3    4 1     
    9    3    8 1     
   10    3   21 1     
   11    4    5 1     
   12    4    6 1     
   13    4   22 1     
   14    5   36 1     
   15    5   37 1     
   16    5   38 1     
   17    6    7 1     
   18    6   23 1     
   19    6   24 1     
   20    7    8 1     
   21    7   25 1     
   22    7   26 1     
   23    8    9 am    
   24    9   10 2     
   25    9   11 1     
   26   11   12 1     
   27   12   13 1     
   28   12   14 1     
   29   12   15 1     
   30   13   27 1     
   31   13   28 1     
   32   13   29 1     
   33   14   30 1     
   34   14   31 1     
   35   14   32 1     
   36   15   33 1     
   37   15   34 1     
   38   15   35 1     
@<TRIPOS>SUBSTRUCTURE
      1 ****           1
@<TRIPOS>SET
DONOR_HYDROGENS      STATIC     ATOMS    <user>   **** ""
3 36 37 38
ATOM$RED        STATIC     ATOMS    COLORGROUP SYSTEM
3 36 37 38
@<TRIPOS>COMMENT
> <Gold.Version>
2022.2.0

> <Gold.Id.Protein>
3pbl|protein|mol2

> <Gold.Protein.RotatedTorsions>
[ 1303 1298 1297 1294 ] final  148.83 input  179.99 | X-H torsion
[ 2461 2456 2455 2452 ] final   -9.10 input   30.03 | X-H torsion
[ 2515 2510 2509 2506 ] final    0.26 input  -89.99 | X-H torsion
[ 3721 3712 3711 3710 ] final   74.70 input -179.91 | X-H torsion
[ 3841 3832 3831 3830 ] final -147.19 input -179.91 | X-H torsion
[ 3767 3762 3761 3758 ] final  146.43 input  -89.99 | X-H torsion
[ 2472 2467 2466 2463 ] final  104.53 input  -89.97 | X-H torsion

> <Gold.Protein.ActiveResidues>
 VAL82   VAL86   LEU89   PHE106  VAL107  ASP110  VAL111  MET112  CYS114  THR115 
 CYS181  SER182  ILE183  PHE188  VAL189  ILE190  SER192  SER193  SER196  TRP342 
 PHE345  PHE346  HIS349  VAL350  TYR365  THR369  GLY372  TYR373 

> <Gold.Protein.RotatedAtoms>
    4.9011   -9.3334    4.8910 H   0  0  0  0  0  0  0  0  0  0  0  0  # atno 1303 bound_to 1298
    0.9025   -8.0442    7.0382 H   0  0  0  0  0  0  0  0  0  0  0  0  # atno 2461 bound_to 2456
   -5.2785   -4.9901    7.9378 H   0  0  0  0  0  0  0  0  0  0  0  0  # atno 2472 bound_to 2467
    2.5391   -7.6264    4.6108 H   0  0  0  0  0  0  0  0  0  0  0  0  # atno 2515 bound_to 2510
   -2.6779  -17.7814   13.2239 H   0  0  0  0  0  0  0  0  0  0  0  0  # atno 3721 bound_to 3712
   -3.9117  -22.9377   11.2514 H   0  0  0  0  0  0  0  0  0  0  0  0  # atno 3767 bound_to 3762
    2.5921  -19.7309    8.3521 H   0  0  0  0  0  0  0  0  0  0  0  0  # atno 3841 bound_to 3832
    3.6191  -10.1711    4.3245 LP  0  0  0  0  0  0  0  0  0  0  0  0  # atno 4297 bound_to 1298
    3.8416   -8.6168    3.8760 LP  0  0  0  0  0  0  0  0  0  0  0  0  # atno 4298 bound_to 1298
    0.6828   -9.2268    8.1429 LP  0  0  0  0  0  0  0  0  0  0  0  0  # atno 4299 bound_to 2456
    2.1524   -8.5370    7.9668 LP  0  0  0  0  0  0  0  0  0  0  0  0  # atno 4300 bound_to 2456
    2.7159   -9.2028    4.9972 LP  0  0  0  0  0  0  0  0  0  0  0  0  # atno 4301 bound_to 2510
    2.0416   -8.1703    6.0676 LP  0  0  0  0  0  0  0  0  0  0  0  0  # atno 4302 bound_to 2510
   -2.8684  -17.6292   14.8108 LP  0  0  0  0  0  0  0  0  0  0  0  0  # atno 4306 bound_to 3712
   -3.5675  -16.5683   13.7850 LP  0  0  0  0  0  0  0  0  0  0  0  0  # atno 4307 bound_to 3712
    2.8220  -21.1128    9.1354 LP  0  0  0  0  0  0  0  0  0  0  0  0  # atno 4314 bound_to 3832
    1.4130  -20.3003    9.2803 LP  0  0  0  0  0  0  0  0  0  0  0  0  # atno 4315 bound_to 3832
   -5.0296  -23.0212   10.0638 LP  0  0  0  0  0  0  0  0  0  0  0  0  # atno 4318 bound_to 3762
   -5.1858  -21.9163   11.2560 LP  0  0  0  0  0  0  0  0  0  0  0  0  # atno 4319 bound_to 3762
   -3.6849   -4.9412    8.2909 LP  0  0  0  0  0  0  0  0  0  0  0  0  # atno 4320 bound_to 2467
   -4.7536   -5.4622    9.4103 LP  0  0  0  0  0  0  0  0  0  0  0  0  # atno 4321 bound_to 2467

> <Gold.Score>
     Score     S(PLP)   S(hbond)     S(cho)   S(metal)  DE(clash)   DE(tors)     intcor
     40.47     -35.56       2.00       0.00       0.00       0.00       0.77       0.44

> <Gold.PLP.Fitness>
40.4656

> <Gold.PLP.PLP>
-35.5641

> <Gold.PLP.part.hbond>
-1.0000

> <Gold.PLP.part.metal>
0.0000

> <Gold.PLP.part.buried>
-1.7340

> <Gold.PLP.part.nonpolar>
-34.0498

> <Gold.PLP.part.repulsive>
0.0388

> <Gold.PLP.ligand.clash>
0.0000

> <Gold.PLP.ligand.torsion>
0.7670

> <Gold.PLP.Chemscore.Hbond>
2.0000

> <Gold.PLP.Chemscore.CHOScore>
0.0000

> <Gold.PLP.Chemscore.Metal>
0.0000

> <Gold.Chemscore.Hbonds>
donor molecule, donor type, donor heavy atom, donor atom, acceptor molecule, acceptor atom, score
      L1  H     5    37       P1  1227  2.00

> <Gold.PLP.Chemscore.Internal.Correction>
0.4354

