#       Name:                EN300-312564_i001
#       Creating user name   fsindt
#       Creation time:       Mon Feb 27 20:44:49 2023


#       File generated by GOLD software.
#

@<TRIPOS>MOLECULE
EN300-312564_i001|amine_3|mol2|696|dock17
    38    38     1
SMALL
USER_CHARGES


@<TRIPOS>ATOM
      1 C1           3.7594 -17.2869  12.3015 C.3            1 <1>                0.0000
      2 C2           2.6581 -17.7566  13.2540 C.3            1 <1>                0.0000
      3 C3           1.2991 -17.2803  12.7368 C.3            1 <1>                0.0000
      4 C4           1.3241 -15.7517  12.5266 C.3            1 <1>                0.0000
      5 N5           1.5258 -15.4253  11.1086 N.4            1 <1>                1.0000
      6 C6          -0.0886 -15.3134  12.9952 C.3            1 <1>                0.0000
      7 C7          -0.3455 -16.2932  14.1672 C.3            1 <1>                0.0000
      8 N8           0.2566 -17.5670  13.7330 N.am           1 <1>                0.0000
      9 C9          -0.0914 -18.7915  14.1757 C.2            1 <1>                0.0000
     10 O10         -1.0306 -18.9185  14.9361 O.2            1 <1>                0.0000
     11 O11          0.6018 -19.8741  13.7755 O.3            1 <1>                0.0000
     12 C12         -0.0860 -21.1520  13.8233 C.3            1 <1>                0.0000
     13 C13          0.7672 -22.2167  13.1311 C.3            1 <1>                0.0000
     14 C14         -0.3169 -21.5525  15.2818 C.3            1 <1>                0.0000
     15 C15         -1.4330 -21.0332  13.1076 C.3            1 <1>                0.0000
     16 H16          4.7323 -17.5693  12.7036 H              1 <1>                0.0000
     17 H17          3.6199 -17.7537  11.3264 H              1 <1>                0.0000
     18 H18          3.7105 -16.2031  12.1958 H              1 <1>                0.0000
     19 H19          2.6648 -18.8453  13.3086 H              1 <1>                0.0000
     20 H20          2.8348 -17.3420  14.2464 H              1 <1>                0.0000
     21 H21          1.0645 -17.7800  11.7970 H              1 <1>                0.0000
     22 H22          2.0974 -15.2905  13.1409 H              1 <1>                0.0000
     23 H23         -0.0817 -14.2807  13.3437 H              1 <1>                0.0000
     24 H24         -0.8237 -15.4516  12.2022 H              1 <1>                0.0000
     25 H25          0.1395 -15.9343  15.0749 H              1 <1>                0.0000
     26 H26         -1.4161 -16.4161  14.3313 H              1 <1>                0.0000
     27 H27          1.7269 -22.3013  13.6409 H              1 <1>                0.0000
     28 H28          0.2510 -23.1759  13.1670 H              1 <1>                0.0000
     29 H29          0.9318 -21.9313  12.0920 H              1 <1>                0.0000
     30 H30         -0.9248 -20.7940  15.7750 H              1 <1>                0.0000
     31 H31         -0.8333 -22.5118  15.3177 H              1 <1>                0.0000
     32 H32          0.6427 -21.6371  15.7917 H              1 <1>                0.0000
     33 H33         -1.2685 -20.7478  12.0686 H              1 <1>                0.0000
     34 H34         -1.9493 -21.9925  13.1436 H              1 <1>                0.0000
     35 H35         -2.0409 -20.2746  13.6008 H              1 <1>                0.0000
     36 H36          2.1742 -14.6562  11.0294 H              1 <1>                0.0000
     37 H37          1.8986 -16.2304  10.6279 H              1 <1>                0.0000
     38 H38          0.6433 -15.1652  10.6944 H              1 <1>                0.0000
@<TRIPOS>BOND
    1    1    2 1     
    2    1   16 1     
    3    1   17 1     
    4    1   18 1     
    5    2    3 1     
    6    2   19 1     
    7    2   20 1     
    8    3    4 1     
    9    3    8 1     
   10    3   21 1     
   11    4    5 1     
   12    4    6 1     
   13    4   22 1     
   14    5   36 1     
   15    5   37 1     
   16    5   38 1     
   17    6    7 1     
   18    6   23 1     
   19    6   24 1     
   20    7    8 1     
   21    7   25 1     
   22    7   26 1     
   23    8    9 am    
   24    9   10 2     
   25    9   11 1     
   26   11   12 1     
   27   12   13 1     
   28   12   14 1     
   29   12   15 1     
   30   13   27 1     
   31   13   28 1     
   32   13   29 1     
   33   14   30 1     
   34   14   31 1     
   35   14   32 1     
   36   15   33 1     
   37   15   34 1     
   38   15   35 1     
@<TRIPOS>SUBSTRUCTURE
      1 ****           1
@<TRIPOS>SET
DONOR_HYDROGENS      STATIC     ATOMS    <user>   **** ""
3 36 37 38
ATOM$RED        STATIC     ATOMS    COLORGROUP SYSTEM
3 36 37 38
@<TRIPOS>COMMENT
> <Gold.Version>
2022.2.0

> <Gold.Id.Protein>
3pbl|protein|mol2

> <Gold.Protein.RotatedTorsions>
[ 1303 1298 1297 1294 ] final -162.54 input  179.99 | X-H torsion
[ 2461 2456 2455 2452 ] final  -19.52 input   30.03 | X-H torsion
[ 2515 2510 2509 2506 ] final   59.03 input  -89.99 | X-H torsion
[ 3721 3712 3711 3710 ] final    1.45 input -179.91 | X-H torsion
[ 3841 3832 3831 3830 ] final -161.64 input -179.91 | X-H torsion
[ 3767 3762 3761 3758 ] final -129.37 input  -89.99 | X-H torsion
[ 2472 2467 2466 2463 ] final   92.83 input  -89.97 | X-H torsion

> <Gold.Protein.ActiveResidues>
 VAL82   VAL86   LEU89   PHE106  VAL107  ASP110  VAL111  MET112  CYS114  THR115 
 CYS181  SER182  ILE183  PHE188  VAL189  ILE190  SER192  SER193  SER196  TRP342 
 PHE345  PHE346  HIS349  VAL350  TYR365  THR369  GLY372  TYR373 

> <Gold.Protein.RotatedAtoms>
    4.7328   -8.6737    4.5180 H   0  0  0  0  0  0  0  0  0  0  0  0  # atno 1303 bound_to 1298
    0.7546   -8.1255    7.0678 H   0  0  0  0  0  0  0  0  0  0  0  0  # atno 2461 bound_to 2456
   -5.1387   -4.9320    7.8194 H   0  0  0  0  0  0  0  0  0  0  0  0  # atno 2472 bound_to 2467
    2.1550   -7.4571    5.4349 H   0  0  0  0  0  0  0  0  0  0  0  0  # atno 2515 bound_to 2510
   -2.4840  -17.9649   14.2222 H   0  0  0  0  0  0  0  0  0  0  0  0  # atno 3721 bound_to 3712
   -4.7181  -22.0215   11.5815 H   0  0  0  0  0  0  0  0  0  0  0  0  # atno 3767 bound_to 3762
    2.7707  -19.8554    8.3530 H   0  0  0  0  0  0  0  0  0  0  0  0  # atno 3841 bound_to 3832
    4.2485  -10.2114    4.7775 LP  0  0  0  0  0  0  0  0  0  0  0  0  # atno 4297 bound_to 1298
    3.3806   -9.2365    3.7961 LP  0  0  0  0  0  0  0  0  0  0  0  0  # atno 4298 bound_to 1298
    0.8227   -9.2680    8.2329 LP  0  0  0  0  0  0  0  0  0  0  0  0  # atno 4299 bound_to 2456
    2.1604   -8.4145    7.8472 LP  0  0  0  0  0  0  0  0  0  0  0  0  # atno 4300 bound_to 2456
    2.8248   -8.5154    4.3875 LP  0  0  0  0  0  0  0  0  0  0  0  0  # atno 4301 bound_to 2510
    2.3170   -9.0271    5.8527 LP  0  0  0  0  0  0  0  0  0  0  0  0  # atno 4302 bound_to 2510
   -3.4335  -16.6951   14.4748 LP  0  0  0  0  0  0  0  0  0  0  0  0  # atno 4306 bound_to 3712
   -3.2263  -17.2905   12.9684 LP  0  0  0  0  0  0  0  0  0  0  0  0  # atno 4307 bound_to 3712
    2.6390  -21.1546    9.2861 LP  0  0  0  0  0  0  0  0  0  0  0  0  # atno 4314 bound_to 3832
    1.3897  -20.1148    9.1286 LP  0  0  0  0  0  0  0  0  0  0  0  0  # atno 4315 bound_to 3832
   -4.0100  -23.2521   10.7746 LP  0  0  0  0  0  0  0  0  0  0  0  0  # atno 4318 bound_to 3762
   -5.3992  -22.6012   10.2152 LP  0  0  0  0  0  0  0  0  0  0  0  0  # atno 4319 bound_to 3762
   -3.6419   -5.0005    8.4685 LP  0  0  0  0  0  0  0  0  0  0  0  0  # atno 4320 bound_to 2467
   -4.9364   -5.4610    9.3510 LP  0  0  0  0  0  0  0  0  0  0  0  0  # atno 4321 bound_to 2467

> <Gold.Score>
     Score     S(PLP)   S(hbond)     S(cho)   S(metal)  DE(clash)   DE(tors)     intcor
     40.75     -32.18       3.00       0.00       0.00       0.00       0.43       0.44

> <Gold.PLP.Fitness>
40.7489

> <Gold.PLP.PLP>
-32.1771

> <Gold.PLP.part.hbond>
-2.0000

> <Gold.PLP.part.metal>
0.0000

> <Gold.PLP.part.buried>
-0.9163

> <Gold.PLP.part.nonpolar>
-29.6948

> <Gold.PLP.part.repulsive>
0.0017

> <Gold.PLP.ligand.clash>
0.0000

> <Gold.PLP.ligand.torsion>
0.4318

> <Gold.PLP.Chemscore.Hbond>
3.0000

> <Gold.PLP.Chemscore.CHOScore>
0.0000

> <Gold.PLP.Chemscore.Metal>
0.0000

> <Gold.Chemscore.Hbonds>
donor molecule, donor type, donor heavy atom, donor atom, acceptor molecule, acceptor atom, score
      L1  H     5    37       P1  1227  2.00
      P1  H  3712  3721       L1    10  1.00

> <Gold.PLP.Chemscore.Internal.Correction>
0.4354

