#       Name:                EN300-61466_i001
#       Creating user name   aseyller
#       Creation time:       Fri Apr 21 17:53:22 2023


#       File generated by GOLD software.
#

@<TRIPOS>MOLECULE
EN300-61466_i001|benzaldehydes|mol2|365|dock14
    30    31     1
SMALL
USER_CHARGES


@<TRIPOS>ATOM
      1 O1          29.8313  39.3537  37.4545 O.2            1 <1>                0.0000
      2 C2          29.9289  38.4503  38.2573 C.2            1 <1>                0.0000
      3 C3          30.5852  37.1908  37.8717 C.ar           1 <1>                0.0000
      4 C4          31.3951  37.1403  36.7324 C.ar           1 <1>                0.0000
      5 C5          32.0069  35.9567  36.3780 C.ar           1 <1>                0.0000
      6 C6          31.8212  34.8202  37.1461 C.ar           1 <1>                0.0000
      7 C7          31.0210  34.8619  38.2744 C.ar           1 <1>                0.0000
      8 C8          30.4068  36.0397  38.6453 C.ar           1 <1>                0.0000
      9 S9          29.3888  36.0905  40.0827 S.o2           1 <1>                0.0000
     10 O10         29.5049  34.8166  40.7017 O.2            1 <1>                0.0000
     11 O11         29.6942  37.3085  40.7479 O.2            1 <1>                0.0000
     12 N12         27.8202  36.2192  39.5680 N.pl3          1 <1>                0.0000
     13 C13         26.7001  35.8774  40.4590 C.3            1 <1>                0.0000
     14 C14         25.7004  37.0395  40.4466 C.3            1 <1>                0.0000
     15 O15         25.3622  37.3550  39.0939 O.3            1 <1>                0.0000
     16 C16         26.4663  37.8024  38.3036 C.3            1 <1>                0.0000
     17 C17         27.5050  36.6847  38.2081 C.3            1 <1>                0.0000
     18 H18         29.5382  38.5715  39.2569 H              1 <1>                0.0000
     19 H19         31.5408  38.0261  36.1319 H              1 <1>                0.0000
     20 H20         32.6324  35.9160  35.4985 H              1 <1>                0.0000
     21 H21         32.3031  33.8960  36.8633 H              1 <1>                0.0000
     22 H22         30.8807  33.9710  38.8684 H              1 <1>                0.0000
     23 H23         26.2122  34.9697  40.1038 H              1 <1>                0.0000
     24 H24         27.0710  35.7230  41.4722 H              1 <1>                0.0000
     25 H25         24.8002  36.7511  40.9893 H              1 <1>                0.0000
     26 H26         26.1496  37.9113  40.9224 H              1 <1>                0.0000
     27 H27         26.1169  38.0628  37.3045 H              1 <1>                0.0000
     28 H28         26.9183  38.6769  38.7715 H              1 <1>                0.0000
     29 H29         28.4082  37.0629  37.7293 H              1 <1>                0.0000
     30 H30         27.1003  35.8561  37.6270 H              1 <1>                0.0000
@<TRIPOS>BOND
    1    1    2 2     
    2    2    3 1     
    3    2   18 1     
    4    3    4 ar    
    5    3    8 ar    
    6    4    5 ar    
    7    4   19 1     
    8    5    6 ar    
    9    5   20 1     
   10    6    7 ar    
   11    6   21 1     
   12    7    8 ar    
   13    7   22 1     
   14    8    9 1     
   15    9   10 2     
   16    9   11 2     
   17    9   12 1     
   18   12   13 1     
   19   12   17 1     
   20   13   14 1     
   21   13   23 1     
   22   13   24 1     
   23   14   15 1     
   24   14   25 1     
   25   14   26 1     
   26   15   16 1     
   27   16   17 1     
   28   16   27 1     
   29   16   28 1     
   30   17   29 1     
   31   17   30 1     
@<TRIPOS>SUBSTRUCTURE
      1 ****           1
@<TRIPOS>COMMENT
> <Gold.Version>
2022.2.0

> <Gold.Id.Protein>
1qkm|1qkm_protein|mol2

> <Gold.Protein.RotatedTorsions>
[  496  491  490  487 ] final   94.42 input  -89.99 | X-H torsion

> <Gold.Protein.ActiveResidues>
 MET295  LEU298  THR299  LEU301  ALA302  GLU305  TRP335  MET336  LEU339  MET340 
 GLY342  LEU343  ARG346  PHE356  ILE373  ILE376  PHE377  LEU380  LYS471  GLY472 
 MET473  HIS475  LEU476  LEU477  ASN478  MET479  VAL484  VAL487 

> <Gold.Protein.RotatedAtoms>
   36.8609   32.9954   41.9700 H   0  0  0  0  0  0  0  0  0  0  0  0  # atno 496  bound_to 491 

> <Gold.Score>
     Score     S(PLP)   S(hbond)     S(cho)   S(metal)  DE(clash)   DE(tors)     intcor
     37.85     -38.48       0.00       0.00       0.00       0.03       2.31       4.01

> <Gold.PLP.Fitness>
37.8475

> <Gold.PLP.PLP>
-38.4840

> <Gold.PLP.part.hbond>
-0.1097

> <Gold.PLP.part.metal>
0.0000

> <Gold.PLP.part.buried>
2.8277

> <Gold.PLP.part.nonpolar>
-45.6519

> <Gold.PLP.part.repulsive>
2.9347

> <Gold.PLP.ligand.clash>
0.0340

> <Gold.PLP.ligand.torsion>
2.3086

> <Gold.PLP.Chemscore.Hbond>
0.0000

> <Gold.PLP.Chemscore.CHOScore>
0.0000

> <Gold.PLP.Chemscore.Metal>
0.0000

> <Gold.PLP.Chemscore.Internal.Correction>
4.0148

