#       Name:                EN300-61466_i001
#       Creating user name   aseyller
#       Creation time:       Fri Apr 21 17:53:12 2023


#       File generated by GOLD software.
#

@<TRIPOS>MOLECULE
EN300-61466_i001
    30    31     1
SMALL
USER_CHARGES


@<TRIPOS>ATOM
      1 O1           1.6460  -3.0281  -0.3412 O.2            1 <1>                0.0000
      2 C2           1.2636  -1.9132  -0.6258 C.2            1 <1>                0.0000
      3 C3           2.0460  -0.7383  -0.2097 C.ar           1 <1>                0.0000
      4 C4           3.2877  -0.9050   0.4123 C.ar           1 <1>                0.0000
      5 C5           4.0149   0.2007   0.7988 C.ar           1 <1>                0.0000
      6 C6           3.5192   1.4733   0.5729 C.ar           1 <1>                0.0000
      7 C7           2.2914   1.6465  -0.0415 C.ar           1 <1>                0.0000
      8 C8           1.5546   0.5506  -0.4391 C.ar           1 <1>                0.0000
      9 S9          -0.0083   0.7737  -1.2217 S.o2           1 <1>                0.0000
     10 O10         -0.2288   2.1761  -1.2848 O.2            1 <1>                0.0000
     11 O11         -0.0061  -0.0651  -2.3687 O.2            1 <1>                0.0000
     12 N12         -1.1598   0.1648  -0.1992 N.pl3          1 <1>                0.0000
     13 C13         -1.7027   0.9779   0.9005 C.3            1 <1>                0.0000
     14 C14         -3.2332   0.9246   0.8314 C.3            1 <1>                0.0000
     15 O15         -3.6548  -0.4406   0.7831 O.3            1 <1>                0.0000
     16 C16         -3.2028  -1.1523  -0.3714 C.3            1 <1>                0.0000
     17 C17         -1.6749  -1.2034  -0.3673 C.3            1 <1>                0.0000
     18 H18          0.3511  -1.7825  -1.1886 H              1 <1>                0.0000
     19 H19          3.6757  -1.8972   0.5895 H              1 <1>                0.0000
     20 H20          4.9737   0.0737   1.2794 H              1 <1>                0.0000
     21 H21          4.0936   2.3355   0.8779 H              1 <1>                0.0000
     22 H22          1.9112   2.6425  -0.2140 H              1 <1>                0.0000
     23 H23         -1.3641   0.5765   1.8557 H              1 <1>                0.0000
     24 H24         -1.3662   2.0093   0.7952 H              1 <1>                0.0000
     25 H25         -3.6544   1.4048   1.7146 H              1 <1>                0.0000
     26 H26         -3.5755   1.4433  -0.0641 H              1 <1>                0.0000
     27 H27         -3.6023  -2.1663  -0.3535 H              1 <1>                0.0000
     28 H28         -3.5450  -0.6412  -1.2713 H              1 <1>                0.0000
     29 H29         -1.3189  -1.6180  -1.3104 H              1 <1>                0.0000
     30 H30         -1.3305  -1.8236   0.4602 H              1 <1>                0.0000
@<TRIPOS>BOND
    1    1    2 2     
    2    2    3 1     
    3    2   18 1     
    4    3    4 ar    
    5    3    8 ar    
    6    4    5 ar    
    7    4   19 1     
    8    5    6 ar    
    9    5   20 1     
   10    6    7 ar    
   11    6   21 1     
   12    7    8 ar    
   13    7   22 1     
   14    8    9 1     
   15    9   10 2     
   16    9   11 2     
   17    9   12 1     
   18   12   13 1     
   19   12   17 1     
   20   13   14 1     
   21   13   23 1     
   22   13   24 1     
   23   14   15 1     
   24   14   25 1     
   25   14   26 1     
   26   15   16 1     
   27   16   17 1     
   28   16   27 1     
   29   16   28 1     
   30   17   29 1     
   31   17   30 1     
@<TRIPOS>SUBSTRUCTURE
      1 ****           1
