#       Name:                EN300-61466_i001
#       Creating user name   aseyller
#       Creation time:       Fri Apr 21 17:53:25 2023


#       File generated by GOLD software.
#

@<TRIPOS>MOLECULE
EN300-61466_i001|benzaldehydes|mol2|365|dock18
    30    31     1
SMALL
USER_CHARGES


@<TRIPOS>ATOM
      1 O1          31.0070  35.5083  38.9862 O.2            1 <1>                0.0000
      2 C2          30.6132  36.5242  38.4542 C.2            1 <1>                0.0000
      3 C3          29.1722  36.8190  38.4067 C.ar           1 <1>                0.0000
      4 C4          28.2625  35.9881  39.0689 C.ar           1 <1>                0.0000
      5 C5          26.9141  36.2712  39.0200 C.ar           1 <1>                0.0000
      6 C6          26.4597  37.3744  38.3180 C.ar           1 <1>                0.0000
      7 C7          27.3533  38.2011  37.6600 C.ar           1 <1>                0.0000
      8 C8          28.7057  37.9345  37.7042 C.ar           1 <1>                0.0000
      9 S9          29.8417  38.9888  36.8659 S.o2           1 <1>                0.0000
     10 O10         29.1037  39.6392  35.8404 O.2            1 <1>                0.0000
     11 O11         30.5563  39.6908  37.8738 O.2            1 <1>                0.0000
     12 N12         30.9432  38.0152  36.1037 N.pl3          1 <1>                0.0000
     13 C13         32.3884  38.2003  36.3098 C.3            1 <1>                0.0000
     14 C14         33.0032  36.8430  36.6701 C.3            1 <1>                0.0000
     15 O15         32.6205  35.8774  35.6877 O.3            1 <1>                0.0000
     16 C16         31.2122  35.6430  35.6149 C.3            1 <1>                0.0000
     17 C17         30.5055  36.9352  35.2050 C.3            1 <1>                0.0000
     18 H18         31.3203  37.2150  38.0191 H              1 <1>                0.0000
     19 H19         28.6154  35.1269  39.6168 H              1 <1>                0.0000
     20 H20         26.2103  35.6305  39.5305 H              1 <1>                0.0000
     21 H21         25.4022  37.5910  38.2835 H              1 <1>                0.0000
     22 H22         26.9912  39.0596  37.1141 H              1 <1>                0.0000
     23 H23         32.8442  38.5786  35.3948 H              1 <1>                0.0000
     24 H24         32.5557  38.9065  37.1230 H              1 <1>                0.0000
     25 H25         34.0895  36.9297  36.6916 H              1 <1>                0.0000
     26 H26         32.6428  36.5285  37.6495 H              1 <1>                0.0000
     27 H27         31.0100  34.8663  34.8774 H              1 <1>                0.0000
     28 H28         30.8452  35.3241  36.5905 H              1 <1>                0.0000
     29 H29         29.4263  36.8045  35.2842 H              1 <1>                0.0000
     30 H30         30.7707  37.1891  34.1787 H              1 <1>                0.0000
@<TRIPOS>BOND
    1    1    2 2     
    2    2    3 1     
    3    2   18 1     
    4    3    4 ar    
    5    3    8 ar    
    6    4    5 ar    
    7    4   19 1     
    8    5    6 ar    
    9    5   20 1     
   10    6    7 ar    
   11    6   21 1     
   12    7    8 ar    
   13    7   22 1     
   14    8    9 1     
   15    9   10 2     
   16    9   11 2     
   17    9   12 1     
   18   12   13 1     
   19   12   17 1     
   20   13   14 1     
   21   13   23 1     
   22   13   24 1     
   23   14   15 1     
   24   14   25 1     
   25   14   26 1     
   26   15   16 1     
   27   16   17 1     
   28   16   27 1     
   29   16   28 1     
   30   17   29 1     
   31   17   30 1     
@<TRIPOS>SUBSTRUCTURE
      1 ****           1
@<TRIPOS>COMMENT
> <Gold.Version>
2022.2.0

> <Gold.Id.Protein>
1qkm|1qkm_protein|mol2

> <Gold.Protein.RotatedTorsions>
[  496  491  490  487 ] final  -81.57 input  -89.99 | X-H torsion

> <Gold.Protein.ActiveResidues>
 MET295  LEU298  THR299  LEU301  ALA302  GLU305  TRP335  MET336  LEU339  MET340 
 GLY342  LEU343  ARG346  PHE356  ILE373  ILE376  PHE377  LEU380  LYS471  GLY472 
 MET473  HIS475  LEU476  LEU477  ASN478  MET479  VAL484  VAL487 

> <Gold.Protein.RotatedAtoms>
   36.6801   34.6996   41.1846 H   0  0  0  0  0  0  0  0  0  0  0  0  # atno 496  bound_to 491 

> <Gold.Score>
     Score     S(PLP)   S(hbond)     S(cho)   S(metal)  DE(clash)   DE(tors)     intcor
     37.37     -37.83       0.00       0.00       0.00       0.02       2.23       4.01

> <Gold.PLP.Fitness>
37.3682

> <Gold.PLP.PLP>
-37.8251

> <Gold.PLP.part.hbond>
0.0000

> <Gold.PLP.part.metal>
0.0000

> <Gold.PLP.part.buried>
0.4974

> <Gold.PLP.part.nonpolar>
-38.8832

> <Gold.PLP.part.repulsive>
0.1627

> <Gold.PLP.ligand.clash>
0.0163

> <Gold.PLP.ligand.torsion>
2.2277

> <Gold.PLP.Chemscore.Hbond>
0.0000

> <Gold.PLP.Chemscore.CHOScore>
0.0000

> <Gold.PLP.Chemscore.Metal>
0.0000

> <Gold.PLP.Chemscore.Internal.Correction>
4.0148

