#       Name:                EN300-61466_i001
#       Creating user name   aseyller
#       Creation time:       Fri Apr 21 17:53:14 2023


#       File generated by GOLD software.
#

@<TRIPOS>MOLECULE
EN300-61466_i001|benzaldehydes|mol2|365|dock2
    30    31     1
SMALL
USER_CHARGES


@<TRIPOS>ATOM
      1 O1          30.4831  38.3383  37.3420 O.2            1 <1>                0.0000
      2 C2          30.4037  37.6883  38.3625 C.2            1 <1>                0.0000
      3 C3          30.7842  36.2667  38.3610 C.ar           1 <1>                0.0000
      4 C4          31.7063  35.7869  37.4250 C.ar           1 <1>                0.0000
      5 C5          32.0580  34.4538  37.4303 C.ar           1 <1>                0.0000
      6 C6          31.5013  33.5909  38.3586 C.ar           1 <1>                0.0000
      7 C7          30.5881  34.0579  39.2876 C.ar           1 <1>                0.0000
      8 C8          30.2303  35.3898  39.2988 C.ar           1 <1>                0.0000
      9 S9          29.0677  35.9821  40.4830 S.o2           1 <1>                0.0000
     10 O10         28.8414  34.9137  41.3922 O.2            1 <1>                0.0000
     11 O11         29.5264  37.2643  40.8891 O.2            1 <1>                0.0000
     12 N12         27.6376  36.2281  39.6852 N.pl3          1 <1>                0.0000
     13 C13         26.3491  36.1086  40.3857 C.3            1 <1>                0.0000
     14 C14         25.5220  37.3661  40.0948 C.3            1 <1>                0.0000
     15 O15         25.4597  37.5717  38.6814 O.3            1 <1>                0.0000
     16 C16         26.7290  37.8081  38.0677 C.3            1 <1>                0.0000
     17 C17         27.6180  36.5787  38.2561 C.3            1 <1>                0.0000
     18 H18         30.0579  38.1537  39.2737 H              1 <1>                0.0000
     19 H19         32.1413  36.4587  36.6999 H              1 <1>                0.0000
     20 H20         32.7696  34.0817  36.7081 H              1 <1>                0.0000
     21 H21         31.7809  32.5478  38.3577 H              1 <1>                0.0000
     22 H22         30.1578  33.3785  40.0084 H              1 <1>                0.0000
     23 H23         25.8165  35.2277  40.0270 H              1 <1>                0.0000
     24 H24         26.5211  36.0224  41.4586 H              1 <1>                0.0000
     25 H25         24.5139  37.2380  40.4890 H              1 <1>                0.0000
     26 H26         25.9919  38.2284  40.5678 H              1 <1>                0.0000
     27 H27         26.5891  37.9981  37.0035 H              1 <1>                0.0000
     28 H28         27.2033  38.6720  38.5333 H              1 <1>                0.0000
     29 H29         28.6297  36.8019  37.9175 H              1 <1>                0.0000
     30 H30         27.2149  35.7430  37.6843 H              1 <1>                0.0000
@<TRIPOS>BOND
    1    1    2 2     
    2    2    3 1     
    3    2   18 1     
    4    3    4 ar    
    5    3    8 ar    
    6    4    5 ar    
    7    4   19 1     
    8    5    6 ar    
    9    5   20 1     
   10    6    7 ar    
   11    6   21 1     
   12    7    8 ar    
   13    7   22 1     
   14    8    9 1     
   15    9   10 2     
   16    9   11 2     
   17    9   12 1     
   18   12   13 1     
   19   12   17 1     
   20   13   14 1     
   21   13   23 1     
   22   13   24 1     
   23   14   15 1     
   24   14   25 1     
   25   14   26 1     
   26   15   16 1     
   27   16   17 1     
   28   16   27 1     
   29   16   28 1     
   30   17   29 1     
   31   17   30 1     
@<TRIPOS>SUBSTRUCTURE
      1 ****           1
@<TRIPOS>COMMENT
> <Gold.Version>
2022.2.0

> <Gold.Id.Protein>
1qkm|1qkm_protein|mol2

> <Gold.Protein.RotatedTorsions>
[  496  491  490  487 ] final   76.01 input  -89.99 | X-H torsion

> <Gold.Protein.ActiveResidues>
 MET295  LEU298  THR299  LEU301  ALA302  GLU305  TRP335  MET336  LEU339  MET340 
 GLY342  LEU343  ARG346  PHE356  ILE373  ILE376  PHE377  LEU380  LYS471  GLY472 
 MET473  HIS475  LEU476  LEU477  ASN478  MET479  VAL484  VAL487 

> <Gold.Protein.RotatedAtoms>
   36.6915   33.1370   42.1756 H   0  0  0  0  0  0  0  0  0  0  0  0  # atno 496  bound_to 491 

> <Gold.Score>
     Score     S(PLP)   S(hbond)     S(cho)   S(metal)  DE(clash)   DE(tors)     intcor
     40.41     -42.58       0.00       0.00       0.00       1.52       2.35       4.04

> <Gold.PLP.Fitness>
40.4068

> <Gold.PLP.PLP>
-42.5846

> <Gold.PLP.part.hbond>
-0.9899

> <Gold.PLP.part.metal>
0.0000

> <Gold.PLP.part.buried>
4.6772

> <Gold.PLP.part.nonpolar>
-49.1058

> <Gold.PLP.part.repulsive>
0.8303

> <Gold.PLP.ligand.clash>
1.5183

> <Gold.PLP.ligand.torsion>
2.3475

> <Gold.PLP.Chemscore.Hbond>
0.0000

> <Gold.PLP.Chemscore.CHOScore>
0.0000

> <Gold.PLP.Chemscore.Metal>
0.0000

> <Gold.PLP.Chemscore.Internal.Correction>
4.0354

