#       Name:                EN300-61466_i001
#       Creating user name   aseyller
#       Creation time:       Fri Apr 21 17:53:18 2023


#       File generated by GOLD software.
#

@<TRIPOS>MOLECULE
EN300-61466_i001|benzaldehydes|mol2|365|dock8
    30    31     1
SMALL
USER_CHARGES


@<TRIPOS>ATOM
      1 O1          32.0845  35.0819  38.2236 O.2            1 <1>                0.0000
      2 C2          31.5951  36.1745  38.0310 C.2            1 <1>                0.0000
      3 C3          31.6417  36.7754  36.6885 C.ar           1 <1>                0.0000
      4 C4          32.5432  36.2936  35.7336 C.ar           1 <1>                0.0000
      5 C5          32.5804  36.8616  34.4779 C.ar           1 <1>                0.0000
      6 C6          31.7289  37.9060  34.1610 C.ar           1 <1>                0.0000
      7 C7          30.8346  38.3885  35.1003 C.ar           1 <1>                0.0000
      8 C8          30.7812  37.8272  36.3589 C.ar           1 <1>                0.0000
      9 S9          29.6413  38.4430  37.5531 S.o2           1 <1>                0.0000
     10 O10         30.4079  39.1757  38.4990 O.2            1 <1>                0.0000
     11 O11         28.5614  39.0084  36.8228 O.2            1 <1>                0.0000
     12 N12         29.0253  37.1360  38.3622 N.pl3          1 <1>                0.0000
     13 C13         29.2924  36.9376  39.7956 C.3            1 <1>                0.0000
     14 C14         27.9572  36.6876  40.5062 C.3            1 <1>                0.0000
     15 O15         27.2590  35.6337  39.8387 O.3            1 <1>                0.0000
     16 C16         26.9125  35.9279  38.4833 C.3            1 <1>                0.0000
     17 C17         28.1894  36.1419  37.6704 C.3            1 <1>                0.0000
     18 H18         31.1210  36.7047  38.8437 H              1 <1>                0.0000
     19 H19         33.2083  35.4790  35.9794 H              1 <1>                0.0000
     20 H20         33.2760  36.4909  33.7395 H              1 <1>                0.0000
     21 H21         31.7629  38.3466  33.1756 H              1 <1>                0.0000
     22 H22         30.1737  39.2038  34.8457 H              1 <1>                0.0000
     23 H23         29.9473  36.0770  39.9313 H              1 <1>                0.0000
     24 H24         29.7662  37.8287  40.2075 H              1 <1>                0.0000
     25 H25         28.1438  36.4023  41.5415 H              1 <1>                0.0000
     26 H26         27.3556  37.5962  40.4809 H              1 <1>                0.0000
     27 H27         26.3472  35.0959  38.0633 H              1 <1>                0.0000
     28 H28         26.3070  36.8337  38.4506 H              1 <1>                0.0000
     29 H29         27.9342  36.5040  36.6745 H              1 <1>                0.0000
     30 H30         28.7360  35.2023  37.5911 H              1 <1>                0.0000
@<TRIPOS>BOND
    1    1    2 2     
    2    2    3 1     
    3    2   18 1     
    4    3    4 ar    
    5    3    8 ar    
    6    4    5 ar    
    7    4   19 1     
    8    5    6 ar    
    9    5   20 1     
   10    6    7 ar    
   11    6   21 1     
   12    7    8 ar    
   13    7   22 1     
   14    8    9 1     
   15    9   10 2     
   16    9   11 2     
   17    9   12 1     
   18   12   13 1     
   19   12   17 1     
   20   13   14 1     
   21   13   23 1     
   22   13   24 1     
   23   14   15 1     
   24   14   25 1     
   25   14   26 1     
   26   15   16 1     
   27   16   17 1     
   28   16   27 1     
   29   16   28 1     
   30   17   29 1     
   31   17   30 1     
@<TRIPOS>SUBSTRUCTURE
      1 ****           1
@<TRIPOS>COMMENT
> <Gold.Version>
2022.2.0

> <Gold.Id.Protein>
1qkm|1qkm_protein|mol2

> <Gold.Protein.RotatedTorsions>
[  496  491  490  487 ] final    9.75 input  -89.99 | X-H torsion

> <Gold.Protein.ActiveResidues>
 MET295  LEU298  THR299  LEU301  ALA302  GLU305  TRP335  MET336  LEU339  MET340 
 GLY342  LEU343  ARG346  PHE356  ILE373  ILE376  PHE377  LEU380  LYS471  GLY472 
 MET473  HIS475  LEU476  LEU477  ASN478  MET479  VAL484  VAL487 

> <Gold.Protein.RotatedAtoms>
   36.2727   34.0701   42.3062 H   0  0  0  0  0  0  0  0  0  0  0  0  # atno 496  bound_to 491 

> <Gold.Score>
     Score     S(PLP)   S(hbond)     S(cho)   S(metal)  DE(clash)   DE(tors)     intcor
     36.31     -36.81       0.00       0.00       0.00       0.01       2.25       4.02

> <Gold.PLP.Fitness>
36.3074

> <Gold.PLP.PLP>
-36.8053

> <Gold.PLP.part.hbond>
0.0000

> <Gold.PLP.part.metal>
0.0000

> <Gold.PLP.part.buried>
6.3603

> <Gold.PLP.part.nonpolar>
-43.0353

> <Gold.PLP.part.repulsive>
0.1105

> <Gold.PLP.ligand.clash>
0.0063

> <Gold.PLP.ligand.torsion>
2.2537

> <Gold.PLP.Chemscore.Hbond>
0.0000

> <Gold.PLP.Chemscore.CHOScore>
0.0000

> <Gold.PLP.Chemscore.Metal>
0.0000

> <Gold.PLP.Chemscore.Internal.Correction>
4.0158

