#       Name:                EN300-61466_i001
#       Creating user name   aseyller
#       Creation time:       Fri Apr 21 17:53:22 2023


#       File generated by GOLD software.
#

@<TRIPOS>MOLECULE
EN300-61466_i001|benzaldehydes|mol2|365|dock13
    30    31     1
SMALL
USER_CHARGES


@<TRIPOS>ATOM
      1 O1          27.4489  39.3838  36.9993 O.2            1 <1>                0.0000
      2 C2          27.8106  38.2709  37.3171 C.2            1 <1>                0.0000
      3 C3          29.2445  37.9404  37.3353 C.ar           1 <1>                0.0000
      4 C4          30.1641  38.7638  36.6774 C.ar           1 <1>                0.0000
      5 C5          31.5059  38.4476  36.6994 C.ar           1 <1>                0.0000
      6 C6          31.9438  37.3186  37.3701 C.ar           1 <1>                0.0000
      7 C7          31.0402  36.4987  38.0230 C.ar           1 <1>                0.0000
      8 C8          29.6955  36.8046  38.0150 C.ar           1 <1>                0.0000
      9 S9          28.5469  35.7593  38.8475 S.o2           1 <1>                0.0000
     10 O10         27.5365  35.4393  37.9008 O.2            1 <1>                0.0000
     11 O11         29.3171  34.7757  39.5246 O.2            1 <1>                0.0000
     12 N12         27.8162  36.6708  40.0212 N.pl3          1 <1>                0.0000
     13 C13         26.4781  37.2455  39.8107 C.3            1 <1>                0.0000
     14 C14         25.6014  36.8836  41.0151 C.3            1 <1>                0.0000
     15 O15         26.2739  37.2641  42.2179 O.3            1 <1>                0.0000
     16 C16         27.5114  36.5829  42.4373 C.3            1 <1>                0.0000
     17 C17         28.4834  36.9248  41.3080 C.3            1 <1>                0.0000
     18 H18         27.0807  37.5235  37.5912 H              1 <1>                0.0000
     19 H19         29.8240  39.6448  36.1534 H              1 <1>                0.0000
     20 H20         32.2172  39.0822  36.1917 H              1 <1>                0.0000
     21 H21         32.9962  37.0763  37.3837 H              1 <1>                0.0000
     22 H22         31.3895  35.6195  38.5438 H              1 <1>                0.0000
     23 H23         26.5536  38.3295  39.7241 H              1 <1>                0.0000
     24 H24         26.0406  36.8337  38.9012 H              1 <1>                0.0000
     25 H25         24.6512  37.4131  40.9459 H              1 <1>                0.0000
     26 H26         25.4203  35.8087  41.0236 H              1 <1>                0.0000
     27 H27         27.9352  36.8960  43.3915 H              1 <1>                0.0000
     28 H28         27.3372  35.5069  42.4510 H              1 <1>                0.0000
     29 H29         29.3749  36.3029  41.3901 H              1 <1>                0.0000
     30 H30         28.7621  37.9767  41.3694 H              1 <1>                0.0000
@<TRIPOS>BOND
    1    1    2 2     
    2    2    3 1     
    3    2   18 1     
    4    3    4 ar    
    5    3    8 ar    
    6    4    5 ar    
    7    4   19 1     
    8    5    6 ar    
    9    5   20 1     
   10    6    7 ar    
   11    6   21 1     
   12    7    8 ar    
   13    7   22 1     
   14    8    9 1     
   15    9   10 2     
   16    9   11 2     
   17    9   12 1     
   18   12   13 1     
   19   12   17 1     
   20   13   14 1     
   21   13   23 1     
   22   13   24 1     
   23   14   15 1     
   24   14   25 1     
   25   14   26 1     
   26   15   16 1     
   27   16   17 1     
   28   16   27 1     
   29   16   28 1     
   30   17   29 1     
   31   17   30 1     
@<TRIPOS>SUBSTRUCTURE
      1 ****           1
@<TRIPOS>COMMENT
> <Gold.Version>
2022.2.0

> <Gold.Id.Protein>
1qkm|1qkm_protein|mol2

> <Gold.Protein.RotatedTorsions>
[  496  491  490  487 ] final  161.30 input  -89.99 | X-H torsion

> <Gold.Protein.ActiveResidues>
 MET295  LEU298  THR299  LEU301  ALA302  GLU305  TRP335  MET336  LEU339  MET340 
 GLY342  LEU343  ARG346  PHE356  ILE373  ILE376  PHE377  LEU380  LYS471  GLY472 
 MET473  HIS475  LEU476  LEU477  ASN478  MET479  VAL484  VAL487 

> <Gold.Protein.RotatedAtoms>
   37.3000   33.2200   41.0550 H   0  0  0  0  0  0  0  0  0  0  0  0  # atno 496  bound_to 491 

> <Gold.Score>
     Score     S(PLP)   S(hbond)     S(cho)   S(metal)  DE(clash)   DE(tors)     intcor
     33.79     -34.00       0.00       0.00       0.00       0.00       2.11       4.01

> <Gold.PLP.Fitness>
33.7942

> <Gold.PLP.PLP>
-33.9959

> <Gold.PLP.part.hbond>
-0.3239

> <Gold.PLP.part.metal>
0.0000

> <Gold.PLP.part.buried>
7.3266

> <Gold.PLP.part.nonpolar>
-40.6515

> <Gold.PLP.part.repulsive>
0.3122

> <Gold.PLP.ligand.clash>
0.0000

> <Gold.PLP.ligand.torsion>
2.1083

> <Gold.PLP.Chemscore.Hbond>
0.0000

> <Gold.PLP.Chemscore.CHOScore>
0.0000

> <Gold.PLP.Chemscore.Metal>
0.0000

> <Gold.PLP.Chemscore.Internal.Correction>
4.0148

