#       Name:                EN300-61466_i001
#       Creating user name   aseyller
#       Creation time:       Fri Apr 21 17:53:15 2023


#       File generated by GOLD software.
#

@<TRIPOS>MOLECULE
EN300-61466_i001|benzaldehydes|mol2|365|dock4
    30    31     1
SMALL
USER_CHARGES


@<TRIPOS>ATOM
      1 O1          30.3126  38.4144  34.6926 O.2            1 <1>                0.0000
      2 C2          30.1108  37.9269  35.7843 C.2            1 <1>                0.0000
      3 C3          31.0087  36.8815  36.3007 C.ar           1 <1>                0.0000
      4 C4          31.8541  36.1875  35.4289 C.ar           1 <1>                0.0000
      5 C5          32.6927  35.2097  35.9204 C.ar           1 <1>                0.0000
      6 C6          32.6993  34.9140  37.2728 C.ar           1 <1>                0.0000
      7 C7          31.8655  35.5959  38.1416 C.ar           1 <1>                0.0000
      8 C8          31.0251  36.5806  37.6662 C.ar           1 <1>                0.0000
      9 S9          29.9647  37.4478  38.7745 S.o2           1 <1>                0.0000
     10 O10         30.2980  37.0001  40.0814 O.2            1 <1>                0.0000
     11 O11         30.0090  38.8139  38.3860 O.2            1 <1>                0.0000
     12 N12         28.4198  36.9283  38.4821 N.pl3          1 <1>                0.0000
     13 C13         27.9013  35.7022  39.1092 C.3            1 <1>                0.0000
     14 C14         26.5528  36.0261  39.7623 C.3            1 <1>                0.0000
     15 O15         25.7030  36.6553  38.8001 O.3            1 <1>                0.0000
     16 C16         26.1944  37.9071  38.3150 C.3            1 <1>                0.0000
     17 C17         27.5227  37.6825  37.5922 C.3            1 <1>                0.0000
     18 H18         29.2748  38.2631  36.3798 H              1 <1>                0.0000
     19 H19         31.8499  36.4168  34.3735 H              1 <1>                0.0000
     20 H20         33.3459  34.6727  35.2486 H              1 <1>                0.0000
     21 H21         33.3585  34.1471  37.6517 H              1 <1>                0.0000
     22 H22         31.8762  35.3593  39.1953 H              1 <1>                0.0000
     23 H23         27.7662  34.9309  38.3509 H              1 <1>                0.0000
     24 H24         28.6021  35.3533  39.8676 H              1 <1>                0.0000
     25 H25         26.0871  35.1048  40.1122 H              1 <1>                0.0000
     26 H26         26.7089  36.6990  40.6055 H              1 <1>                0.0000
     27 H27         25.4708  38.3390  37.6237 H              1 <1>                0.0000
     28 H28         26.3492  38.5869  39.1529 H              1 <1>                0.0000
     29 H29         27.9726  38.6438  37.3439 H              1 <1>                0.0000
     30 H30         27.3524  37.1099  36.6806 H              1 <1>                0.0000
@<TRIPOS>BOND
    1    1    2 2     
    2    2    3 1     
    3    2   18 1     
    4    3    4 ar    
    5    3    8 ar    
    6    4    5 ar    
    7    4   19 1     
    8    5    6 ar    
    9    5   20 1     
   10    6    7 ar    
   11    6   21 1     
   12    7    8 ar    
   13    7   22 1     
   14    8    9 1     
   15    9   10 2     
   16    9   11 2     
   17    9   12 1     
   18   12   13 1     
   19   12   17 1     
   20   13   14 1     
   21   13   23 1     
   22   13   24 1     
   23   14   15 1     
   24   14   25 1     
   25   14   26 1     
   26   15   16 1     
   27   16   17 1     
   28   16   27 1     
   29   16   28 1     
   30   17   29 1     
   31   17   30 1     
@<TRIPOS>SUBSTRUCTURE
      1 ****           1
@<TRIPOS>COMMENT
> <Gold.Version>
2022.2.0

> <Gold.Id.Protein>
1qkm|1qkm_protein|mol2

> <Gold.Protein.RotatedTorsions>
[  496  491  490  487 ] final  141.56 input  -89.99 | X-H torsion

> <Gold.Protein.ActiveResidues>
 MET295  LEU298  THR299  LEU301  ALA302  GLU305  TRP335  MET336  LEU339  MET340 
 GLY342  LEU343  ARG346  PHE356  ILE373  ILE376  PHE377  LEU380  LYS471  GLY472 
 MET473  HIS475  LEU476  LEU477  ASN478  MET479  VAL484  VAL487 

> <Gold.Protein.RotatedAtoms>
   37.2227   33.0360   41.3095 H   0  0  0  0  0  0  0  0  0  0  0  0  # atno 496  bound_to 491 

> <Gold.Score>
     Score     S(PLP)   S(hbond)     S(cho)   S(metal)  DE(clash)   DE(tors)     intcor
     38.84     -38.98       0.00       0.00       0.00       0.00       2.08       4.02

> <Gold.PLP.Fitness>
38.8439

> <Gold.PLP.PLP>
-38.9837

> <Gold.PLP.part.hbond>
0.0000

> <Gold.PLP.part.metal>
0.0000

> <Gold.PLP.part.buried>
4.4183

> <Gold.PLP.part.nonpolar>
-44.4539

> <Gold.PLP.part.repulsive>
0.2477

> <Gold.PLP.ligand.clash>
0.0000

> <Gold.PLP.ligand.torsion>
2.0778

> <Gold.PLP.Chemscore.Hbond>
0.0000

> <Gold.PLP.Chemscore.CHOScore>
0.0000

> <Gold.PLP.Chemscore.Metal>
0.0000

> <Gold.PLP.Chemscore.Internal.Correction>
4.0158

