#       Name:                EN300-61466_i001
#       Creating user name   aseyller
#       Creation time:       Fri Apr 21 17:53:27 2023


#       File generated by GOLD software.
#

@<TRIPOS>MOLECULE
EN300-61466_i001|benzaldehydes|mol2|365|dock20
    30    31     1
SMALL
USER_CHARGES


@<TRIPOS>ATOM
      1 O1          27.0007  38.4562  37.5768 O.2            1 <1>                0.0000
      2 C2          26.9974  37.2979  37.9355 C.2            1 <1>                0.0000
      3 C3          27.1549  36.9685  39.3611 C.ar           1 <1>                0.0000
      4 C4          26.1484  37.2995  40.2744 C.ar           1 <1>                0.0000
      5 C5          26.3032  36.9872  41.6083 C.ar           1 <1>                0.0000
      6 C6          27.4509  36.3479  42.0446 C.ar           1 <1>                0.0000
      7 C7          28.4513  36.0176  41.1474 C.ar           1 <1>                0.0000
      8 C8          28.3089  36.3181  39.8090 C.ar           1 <1>                0.0000
      9 S9          29.5839  35.8960  38.6683 S.o2           1 <1>                0.0000
     10 O10         30.5597  35.1735  39.4067 O.2            1 <1>                0.0000
     11 O11         28.9354  35.3727  37.5173 O.2            1 <1>                0.0000
     12 N12         30.3065  37.3092  38.1960 N.pl3          1 <1>                0.0000
     13 C13         31.6158  37.3029  37.5244 C.3            1 <1>                0.0000
     14 C14         31.5106  38.1516  36.2521 C.3            1 <1>                0.0000
     15 O15         30.9739  39.4341  36.5849 O.3            1 <1>                0.0000
     16 C16         29.6483  39.3934  37.1185 C.3            1 <1>                0.0000
     17 C17         29.6555  38.6080  38.4301 C.3            1 <1>                0.0000
     18 H18         26.8743  36.5080  37.2093 H              1 <1>                0.0000
     19 H19         25.2525  37.7985  39.9356 H              1 <1>                0.0000
     20 H20         25.5272  37.2423  42.3148 H              1 <1>                0.0000
     21 H21         27.5663  36.1059  43.0908 H              1 <1>                0.0000
     22 H22         29.3440  35.5192  41.4955 H              1 <1>                0.0000
     23 H23         32.3704  37.7267  38.1871 H              1 <1>                0.0000
     24 H24         31.8890  36.2808  37.2623 H              1 <1>                0.0000
     25 H25         32.5008  38.2739  35.8132 H              1 <1>                0.0000
     26 H26         30.8535  37.6562  35.5373 H              1 <1>                0.0000
     27 H27         29.2986  40.4092  37.3029 H              1 <1>                0.0000
     28 H28         28.9843  38.9025  36.4069 H              1 <1>                0.0000
     29 H29         28.6317  38.4512  38.7697 H              1 <1>                0.0000
     30 H30         30.2130  39.1609  39.1860 H              1 <1>                0.0000
@<TRIPOS>BOND
    1    1    2 2     
    2    2    3 1     
    3    2   18 1     
    4    3    4 ar    
    5    3    8 ar    
    6    4    5 ar    
    7    4   19 1     
    8    5    6 ar    
    9    5   20 1     
   10    6    7 ar    
   11    6   21 1     
   12    7    8 ar    
   13    7   22 1     
   14    8    9 1     
   15    9   10 2     
   16    9   11 2     
   17    9   12 1     
   18   12   13 1     
   19   12   17 1     
   20   13   14 1     
   21   13   23 1     
   22   13   24 1     
   23   14   15 1     
   24   14   25 1     
   25   14   26 1     
   26   15   16 1     
   27   16   17 1     
   28   16   27 1     
   29   16   28 1     
   30   17   29 1     
   31   17   30 1     
@<TRIPOS>SUBSTRUCTURE
      1 ****           1
@<TRIPOS>COMMENT
> <Gold.Version>
2022.2.0

> <Gold.Id.Protein>
1qkm|1qkm_protein|mol2

> <Gold.Protein.RotatedTorsions>
[  496  491  490  487 ] final    3.36 input  -89.99 | X-H torsion

> <Gold.Protein.ActiveResidues>
 MET295  LEU298  THR299  LEU301  ALA302  GLU305  TRP335  MET336  LEU339  MET340 
 GLY342  LEU343  ARG346  PHE356  ILE373  ILE376  PHE377  LEU380  LYS471  GLY472 
 MET473  HIS475  LEU476  LEU477  ASN478  MET479  VAL484  VAL487 

> <Gold.Protein.RotatedAtoms>
   36.2625   34.1652   42.2625 H   0  0  0  0  0  0  0  0  0  0  0  0  # atno 496  bound_to 491 

> <Gold.Score>
     Score     S(PLP)   S(hbond)     S(cho)   S(metal)  DE(clash)   DE(tors)     intcor
     35.25     -37.04       0.00       0.00       0.00       0.00       2.90       4.01

> <Gold.PLP.Fitness>
35.2534

> <Gold.PLP.PLP>
-37.0420

> <Gold.PLP.part.hbond>
0.0000

> <Gold.PLP.part.metal>
0.0000

> <Gold.PLP.part.buried>
5.9774

> <Gold.PLP.part.nonpolar>
-43.6453

> <Gold.PLP.part.repulsive>
1.2308

> <Gold.PLP.ligand.clash>
0.0000

> <Gold.PLP.ligand.torsion>
2.9017

> <Gold.PLP.Chemscore.Hbond>
0.0000

> <Gold.PLP.Chemscore.CHOScore>
0.0000

> <Gold.PLP.Chemscore.Metal>
0.0000

> <Gold.PLP.Chemscore.Internal.Correction>
4.0148

