#       Name:                EN300-61466_i001
#       Creating user name   aseyller
#       Creation time:       Fri Apr 21 17:53:21 2023


#       File generated by GOLD software.
#

@<TRIPOS>MOLECULE
EN300-61466_i001|benzaldehydes|mol2|365|dock12
    30    31     1
SMALL
USER_CHARGES


@<TRIPOS>ATOM
      1 O1          30.0254  35.6438  39.6980 O.2            1 <1>                0.0000
      2 C2          29.9337  36.6070  38.9672 C.2            1 <1>                0.0000
      3 C3          28.6083  37.0848  38.5421 C.ar           1 <1>                0.0000
      4 C4          27.4516  36.4351  38.9852 C.ar           1 <1>                0.0000
      5 C5          26.2135  36.8889  38.5828 C.ar           1 <1>                0.0000
      6 C6          26.1133  37.9844  37.7425 C.ar           1 <1>                0.0000
      7 C7          27.2530  38.6323  37.2995 C.ar           1 <1>                0.0000
      8 C8          28.4985  38.1939  37.6976 C.ar           1 <1>                0.0000
      9 S9          29.9483  39.0208  37.1326 S.o2           1 <1>                0.0000
     10 O10         29.5038  40.1549  36.4008 O.2            1 <1>                0.0000
     11 O11         30.8207  39.1103  38.2507 O.2            1 <1>                0.0000
     12 N12         30.6889  38.0203  36.0404 N.pl3          1 <1>                0.0000
     13 C13         30.4725  38.1849  34.5943 C.3            1 <1>                0.0000
     14 C14         31.8399  38.2289  33.9026 C.3            1 <1>                0.0000
     15 O15         32.6072  37.0915  34.3044 O.3            1 <1>                0.0000
     16 C16         32.8967  37.0453  35.7036 C.3            1 <1>                0.0000
     17 C17         31.5879  36.9443  36.4872 C.3            1 <1>                0.0000
     18 H18         30.8247  37.1172  38.6319 H              1 <1>                0.0000
     19 H19         27.5280  35.5801  39.6406 H              1 <1>                0.0000
     20 H20         25.3194  36.3883  38.9239 H              1 <1>                0.0000
     21 H21         25.1406  38.3352  37.4309 H              1 <1>                0.0000
     22 H22         27.1668  39.4860  36.6438 H              1 <1>                0.0000
     23 H23         29.8943  37.3439  34.2115 H              1 <1>                0.0000
     24 H24         29.9363  39.1152  34.4069 H              1 <1>                0.0000
     25 H25         31.7017  38.2115  32.8216 H              1 <1>                0.0000
     26 H26         32.3635  39.1410  34.1889 H              1 <1>                0.0000
     27 H27         33.5189  36.1765  35.9181 H              1 <1>                0.0000
     28 H28         33.4242  37.9531  35.9964 H              1 <1>                0.0000
     29 H29         31.7890  37.0508  37.5531 H              1 <1>                0.0000
     30 H30         31.1192  35.9790  36.2962 H              1 <1>                0.0000
@<TRIPOS>BOND
    1    1    2 2     
    2    2    3 1     
    3    2   18 1     
    4    3    4 ar    
    5    3    8 ar    
    6    4    5 ar    
    7    4   19 1     
    8    5    6 ar    
    9    5   20 1     
   10    6    7 ar    
   11    6   21 1     
   12    7    8 ar    
   13    7   22 1     
   14    8    9 1     
   15    9   10 2     
   16    9   11 2     
   17    9   12 1     
   18   12   13 1     
   19   12   17 1     
   20   13   14 1     
   21   13   23 1     
   22   13   24 1     
   23   14   15 1     
   24   14   25 1     
   25   14   26 1     
   26   15   16 1     
   27   16   17 1     
   28   16   27 1     
   29   16   28 1     
   30   17   29 1     
   31   17   30 1     
@<TRIPOS>SUBSTRUCTURE
      1 ****           1
@<TRIPOS>COMMENT
> <Gold.Version>
2022.2.0

> <Gold.Id.Protein>
1qkm|1qkm_protein|mol2

> <Gold.Protein.RotatedTorsions>
[  496  491  490  487 ] final  148.39 input  -89.99 | X-H torsion

> <Gold.Protein.ActiveResidues>
 MET295  LEU298  THR299  LEU301  ALA302  GLU305  TRP335  MET336  LEU339  MET340 
 GLY342  LEU343  ARG346  PHE356  ILE373  ILE376  PHE377  LEU380  LYS471  GLY472 
 MET473  HIS475  LEU476  LEU477  ASN478  MET479  VAL484  VAL487 

> <Gold.Protein.RotatedAtoms>
   37.2558   33.0899   41.2166 H   0  0  0  0  0  0  0  0  0  0  0  0  # atno 496  bound_to 491 

> <Gold.Score>
     Score     S(PLP)   S(hbond)     S(cho)   S(metal)  DE(clash)   DE(tors)     intcor
     39.05     -39.05       0.00       0.00       0.00       0.00       2.01       4.01

> <Gold.PLP.Fitness>
39.0511

> <Gold.PLP.PLP>
-39.0541

> <Gold.PLP.part.hbond>
0.0000

> <Gold.PLP.part.metal>
0.0000

> <Gold.PLP.part.buried>
3.2737

> <Gold.PLP.part.nonpolar>
-43.6236

> <Gold.PLP.part.repulsive>
1.1075

> <Gold.PLP.ligand.clash>
0.0000

> <Gold.PLP.ligand.torsion>
2.0089

> <Gold.PLP.Chemscore.Hbond>
0.0000

> <Gold.PLP.Chemscore.CHOScore>
0.0000

> <Gold.PLP.Chemscore.Metal>
0.0000

> <Gold.PLP.Chemscore.Internal.Correction>
4.0148

