#       Name:                EN300-61466_i001
#       Creating user name   aseyller
#       Creation time:       Fri Apr 21 17:53:14 2023


#       File generated by GOLD software.
#

@<TRIPOS>MOLECULE
EN300-61466_i001|benzaldehydes|mol2|365|dock3
    30    31     1
SMALL
USER_CHARGES


@<TRIPOS>ATOM
      1 O1          29.8341  40.2998  36.9580 O.2            1 <1>                0.0000
      2 C2          29.9819  39.1932  37.4311 C.2            1 <1>                0.0000
      3 C3          30.7002  38.1578  36.6710 C.ar           1 <1>                0.0000
      4 C4          31.2719  38.4650  35.4319 C.ar           1 <1>                0.0000
      5 C5          31.9436  37.4896  34.7260 C.ar           1 <1>                0.0000
      6 C6          32.0529  36.2091  35.2404 C.ar           1 <1>                0.0000
      7 C7          31.4897  35.8972  36.4654 C.ar           1 <1>                0.0000
      8 C8          30.8195  36.8633  37.1861 C.ar           1 <1>                0.0000
      9 S9          30.1036  36.4639  38.7459 S.o2           1 <1>                0.0000
     10 O10         30.5705  35.1642  39.0806 O.2            1 <1>                0.0000
     11 O11         30.2986  37.5983  39.5792 O.2            1 <1>                0.0000
     12 N12         28.4694  36.3286  38.5149 N.pl3          1 <1>                0.0000
     13 C13         27.6702  35.3730  39.2979 C.3            1 <1>                0.0000
     14 C14         26.4694  36.1188  39.8913 C.3            1 <1>                0.0000
     15 O15         25.7841  36.8137  38.8467 O.3            1 <1>                0.0000
     16 C16         26.5678  37.8198  38.2007 C.3            1 <1>                0.0000
     17 C17         27.7726  37.1651  37.5247 C.3            1 <1>                0.0000
     18 H18         29.5903  38.9686  38.4123 H              1 <1>                0.0000
     19 H19         31.1873  39.4634  35.0291 H              1 <1>                0.0000
     20 H20         32.3854  37.7251  33.7691 H              1 <1>                0.0000
     21 H21         32.5804  35.4494  34.6828 H              1 <1>                0.0000
     22 H22         31.5789  34.8959  36.8599 H              1 <1>                0.0000
     23 H23         27.3196  34.5697  38.6497 H              1 <1>                0.0000
     24 H24         28.2782  34.9578  40.1016 H              1 <1>                0.0000
     25 H25         25.7920  35.4043  40.3589 H              1 <1>                0.0000
     26 H26         26.8172  36.8336  40.6370 H              1 <1>                0.0000
     27 H27         25.9610  38.3291  37.4521 H              1 <1>                0.0000
     28 H28         26.9159  38.5409  38.9403 H              1 <1>                0.0000
     29 H29         28.4480  37.9352  37.1522 H              1 <1>                0.0000
     30 H30         27.4350  36.5407  36.6975 H              1 <1>                0.0000
@<TRIPOS>BOND
    1    1    2 2     
    2    2    3 1     
    3    2   18 1     
    4    3    4 ar    
    5    3    8 ar    
    6    4    5 ar    
    7    4   19 1     
    8    5    6 ar    
    9    5   20 1     
   10    6    7 ar    
   11    6   21 1     
   12    7    8 ar    
   13    7   22 1     
   14    8    9 1     
   15    9   10 2     
   16    9   11 2     
   17    9   12 1     
   18   12   13 1     
   19   12   17 1     
   20   13   14 1     
   21   13   23 1     
   22   13   24 1     
   23   14   15 1     
   24   14   25 1     
   25   14   26 1     
   26   15   16 1     
   27   16   17 1     
   28   16   27 1     
   29   16   28 1     
   30   17   29 1     
   31   17   30 1     
@<TRIPOS>SUBSTRUCTURE
      1 ****           1
@<TRIPOS>COMMENT
> <Gold.Version>
2022.2.0

> <Gold.Id.Protein>
1qkm|1qkm_protein|mol2

> <Gold.Protein.RotatedTorsions>
[  496  491  490  487 ] final  -62.63 input  -89.99 | X-H torsion

> <Gold.Protein.ActiveResidues>
 MET295  LEU298  THR299  LEU301  ALA302  GLU305  TRP335  MET336  LEU339  MET340 
 GLY342  LEU343  ARG346  PHE356  ILE373  ILE376  PHE377  LEU380  LYS471  GLY472 
 MET473  HIS475  LEU476  LEU477  ASN478  MET479  VAL484  VAL487 

> <Gold.Protein.RotatedAtoms>
   36.5176   34.7349   41.4467 H   0  0  0  0  0  0  0  0  0  0  0  0  # atno 496  bound_to 491 

> <Gold.Score>
     Score     S(PLP)   S(hbond)     S(cho)   S(metal)  DE(clash)   DE(tors)     intcor
     39.09     -41.46       0.00       0.00       0.00       2.01       2.19       4.02

> <Gold.PLP.Fitness>
39.0890

> <Gold.PLP.PLP>
-41.4574

> <Gold.PLP.part.hbond>
0.0000

> <Gold.PLP.part.metal>
0.0000

> <Gold.PLP.part.buried>
2.0000

> <Gold.PLP.part.nonpolar>
-44.4019

> <Gold.PLP.part.repulsive>
0.2418

> <Gold.PLP.ligand.clash>
2.0129

> <Gold.PLP.ligand.torsion>
2.1871

> <Gold.PLP.Chemscore.Hbond>
0.0000

> <Gold.PLP.Chemscore.CHOScore>
0.0000

> <Gold.PLP.Chemscore.Metal>
0.0000

> <Gold.PLP.Chemscore.Internal.Correction>
4.0187

