#       Name:                EN300-61466_i001
#       Creating user name   aseyller
#       Creation time:       Fri Apr 21 17:53:16 2023


#       File generated by GOLD software.
#

@<TRIPOS>MOLECULE
EN300-61466_i001|benzaldehydes|mol2|365|dock5
    30    31     1
SMALL
USER_CHARGES


@<TRIPOS>ATOM
      1 O1          29.0812  39.4246  36.6382 O.2            1 <1>                0.0000
      2 C2          28.9978  38.2943  37.0690 C.2            1 <1>                0.0000
      3 C3          30.2186  37.5229  37.3525 C.ar           1 <1>                0.0000
      4 C4          31.4721  38.0384  37.0068 C.ar           1 <1>                0.0000
      5 C5          32.6111  37.3099  37.2761 C.ar           1 <1>                0.0000
      6 C6          32.5167  36.0712  37.8868 C.ar           1 <1>                0.0000
      7 C7          31.2802  35.5541  38.2315 C.ar           1 <1>                0.0000
      8 C8          30.1320  36.2732  37.9739 C.ar           1 <1>                0.0000
      9 S9          28.5587  35.6129  38.4142 S.o2           1 <1>                0.0000
     10 O10         27.6895  35.8862  37.3238 O.2            1 <1>                0.0000
     11 O11         28.7977  34.3020  38.9080 O.2            1 <1>                0.0000
     12 N12         27.9960  36.4996  39.6945 N.pl3          1 <1>                0.0000
     13 C13         26.6394  37.0695  39.6833 C.3            1 <1>                0.0000
     14 C14         25.9410  36.6816  40.9917 C.3            1 <1>                0.0000
     15 O15         26.7736  37.0456  42.0954 O.3            1 <1>                0.0000
     16 C16         28.0321  36.3683  42.1276 C.3            1 <1>                0.0000
     17 C17         28.8355  36.7355  40.8799 C.3            1 <1>                0.0000
     18 H18         28.0277  37.8551  37.2489 H              1 <1>                0.0000
     19 H19         31.5474  39.0046  36.5300 H              1 <1>                0.0000
     20 H20         33.5797  37.7064  37.0096 H              1 <1>                0.0000
     21 H21         33.4126  35.5053  38.0952 H              1 <1>                0.0000
     22 H22         31.2146  34.5868  38.7074 H              1 <1>                0.0000
     23 H23         26.6980  38.1553  39.6064 H              1 <1>                0.0000
     24 H24         26.0806  36.6707  38.8367 H              1 <1>                0.0000
     25 H25         24.9885  37.2063  41.0654 H              1 <1>                0.0000
     26 H26         25.7669  35.6057  41.0063 H              1 <1>                0.0000
     27 H27         28.5840  36.6677  43.0186 H              1 <1>                0.0000
     28 H28         27.8656  35.2913  42.1463 H              1 <1>                0.0000
     29 H29         29.7320  36.1179  40.8255 H              1 <1>                0.0000
     30 H30         29.1162  37.7880  40.9204 H              1 <1>                0.0000
@<TRIPOS>BOND
    1    1    2 2     
    2    2    3 1     
    3    2   18 1     
    4    3    4 ar    
    5    3    8 ar    
    6    4    5 ar    
    7    4   19 1     
    8    5    6 ar    
    9    5   20 1     
   10    6    7 ar    
   11    6   21 1     
   12    7    8 ar    
   13    7   22 1     
   14    8    9 1     
   15    9   10 2     
   16    9   11 2     
   17    9   12 1     
   18   12   13 1     
   19   12   17 1     
   20   13   14 1     
   21   13   23 1     
   22   13   24 1     
   23   14   15 1     
   24   14   25 1     
   25   14   26 1     
   26   15   16 1     
   27   16   17 1     
   28   16   27 1     
   29   16   28 1     
   30   17   29 1     
   31   17   30 1     
@<TRIPOS>SUBSTRUCTURE
      1 ****           1
@<TRIPOS>COMMENT
> <Gold.Version>
2022.2.0

> <Gold.Id.Protein>
1qkm|1qkm_protein|mol2

> <Gold.Protein.RotatedTorsions>
[  496  491  490  487 ] final  -81.11 input  -89.99 | X-H torsion

> <Gold.Protein.ActiveResidues>
 MET295  LEU298  THR299  LEU301  ALA302  GLU305  TRP335  MET336  LEU339  MET340 
 GLY342  LEU343  ARG346  PHE356  ILE373  ILE376  PHE377  LEU380  LYS471  GLY472 
 MET473  HIS475  LEU476  LEU477  ASN478  MET479  VAL484  VAL487 

> <Gold.Protein.RotatedAtoms>
   36.6760   34.7016   41.1906 H   0  0  0  0  0  0  0  0  0  0  0  0  # atno 496  bound_to 491 

> <Gold.Score>
     Score     S(PLP)   S(hbond)     S(cho)   S(metal)  DE(clash)   DE(tors)     intcor
     37.86     -38.09       0.00       0.00       0.00       0.00       2.13       4.02

> <Gold.PLP.Fitness>
37.8564

> <Gold.PLP.PLP>
-38.0921

> <Gold.PLP.part.hbond>
0.0000

> <Gold.PLP.part.metal>
0.0000

> <Gold.PLP.part.buried>
3.6342

> <Gold.PLP.part.nonpolar>
-43.5782

> <Gold.PLP.part.repulsive>
0.4746

> <Gold.PLP.ligand.clash>
0.0000

> <Gold.PLP.ligand.torsion>
2.1258

> <Gold.PLP.Chemscore.Hbond>
0.0000

> <Gold.PLP.Chemscore.CHOScore>
0.0000

> <Gold.PLP.Chemscore.Metal>
0.0000

> <Gold.PLP.Chemscore.Internal.Correction>
4.0158

