#       Name:                EN300-61466_i001
#       Creating user name   aseyller
#       Creation time:       Fri Apr 21 17:53:26 2023


#       File generated by GOLD software.
#

@<TRIPOS>MOLECULE
EN300-61466_i001|benzaldehydes|mol2|365|dock19
    30    31     1
SMALL
USER_CHARGES


@<TRIPOS>ATOM
      1 O1          31.1514  34.1893  38.8027 O.2            1 <1>                0.0000
      2 C2          30.9131  35.3781  38.7939 C.2            1 <1>                0.0000
      3 C3          29.5278  35.8498  38.6386 C.ar           1 <1>                0.0000
      4 C4          28.4624  35.0616  39.0861 C.ar           1 <1>                0.0000
      5 C5          27.1675  35.5107  38.9374 C.ar           1 <1>                0.0000
      6 C6          26.9201  36.7381  38.3470 C.ar           1 <1>                0.0000
      7 C7          27.9686  37.5236  37.9013 C.ar           1 <1>                0.0000
      8 C8          29.2699  37.0908  38.0480 C.ar           1 <1>                0.0000
      9 S9          30.6033  38.0930  37.4802 S.o2           1 <1>                0.0000
     10 O10         30.0316  39.3288  37.0737 O.2            1 <1>                0.0000
     11 O11         31.6253  37.9953  38.4626 O.2            1 <1>                0.0000
     12 N12         31.2022  37.3816  36.1100 N.pl3          1 <1>                0.0000
     13 C13         30.8252  37.8722  34.7749 C.3            1 <1>                0.0000
     14 C14         32.1057  38.0931  33.9616 C.3            1 <1>                0.0000
     15 O15         32.8989  36.9043  34.0005 O.3            1 <1>                0.0000
     16 C16         33.3446  36.5407  35.3093 C.3            1 <1>                0.0000
     17 C17         32.1320  36.2439  36.1916 C.3            1 <1>                0.0000
     18 H18         31.7169  36.0909  38.9046 H              1 <1>                0.0000
     19 H19         28.6538  34.1037  39.5467 H              1 <1>                0.0000
     20 H20         26.3438  34.9032  39.2822 H              1 <1>                0.0000
     21 H21         25.9035  37.0844  38.2334 H              1 <1>                0.0000
     22 H22         27.7676  38.4798  37.4414 H              1 <1>                0.0000
     23 H23         30.1964  37.1343  34.2766 H              1 <1>                0.0000
     24 H24         30.2833  38.8133  34.8692 H              1 <1>                0.0000
     25 H25         31.8455  38.3237  32.9285 H              1 <1>                0.0000
     26 H26         32.6703  38.9217  34.3892 H              1 <1>                0.0000
     27 H27         33.9758  35.6543  35.2456 H              1 <1>                0.0000
     28 H28         33.9137  37.3636  35.7418 H              1 <1>                0.0000
     29 H29         32.4541  36.1044  37.2235 H              1 <1>                0.0000
     30 H30         31.6321  35.3423  35.8376 H              1 <1>                0.0000
@<TRIPOS>BOND
    1    1    2 2     
    2    2    3 1     
    3    2   18 1     
    4    3    4 ar    
    5    3    8 ar    
    6    4    5 ar    
    7    4   19 1     
    8    5    6 ar    
    9    5   20 1     
   10    6    7 ar    
   11    6   21 1     
   12    7    8 ar    
   13    7   22 1     
   14    8    9 1     
   15    9   10 2     
   16    9   11 2     
   17    9   12 1     
   18   12   13 1     
   19   12   17 1     
   20   13   14 1     
   21   13   23 1     
   22   13   24 1     
   23   14   15 1     
   24   14   25 1     
   25   14   26 1     
   26   15   16 1     
   27   16   17 1     
   28   16   27 1     
   29   16   28 1     
   30   17   29 1     
   31   17   30 1     
@<TRIPOS>SUBSTRUCTURE
      1 ****           1
@<TRIPOS>COMMENT
> <Gold.Version>
2022.2.0

> <Gold.Id.Protein>
1qkm|1qkm_protein|mol2

> <Gold.Protein.RotatedTorsions>
[  496  491  490  487 ] final  -40.54 input  -89.99 | X-H torsion

> <Gold.Protein.ActiveResidues>
 MET295  LEU298  THR299  LEU301  ALA302  GLU305  TRP335  MET336  LEU339  MET340 
 GLY342  LEU343  ARG346  PHE356  ILE373  ILE376  PHE377  LEU380  LYS471  GLY472 
 MET473  HIS475  LEU476  LEU477  ASN478  MET479  VAL484  VAL487 

> <Gold.Protein.RotatedAtoms>
   36.3663   34.6535   41.7647 H   0  0  0  0  0  0  0  0  0  0  0  0  # atno 496  bound_to 491 

> <Gold.Score>
     Score     S(PLP)   S(hbond)     S(cho)   S(metal)  DE(clash)   DE(tors)     intcor
     36.57     -37.56       0.00       0.00       0.00       0.63       2.18       4.01

> <Gold.PLP.Fitness>
36.5745

> <Gold.PLP.PLP>
-37.5572

> <Gold.PLP.part.hbond>
0.0000

> <Gold.PLP.part.metal>
0.0000

> <Gold.PLP.part.buried>
7.0271

> <Gold.PLP.part.nonpolar>
-46.5637

> <Gold.PLP.part.repulsive>
2.0538

> <Gold.PLP.ligand.clash>
0.6337

> <Gold.PLP.ligand.torsion>
2.1819

> <Gold.PLP.Chemscore.Hbond>
0.0000

> <Gold.PLP.Chemscore.CHOScore>
0.0000

> <Gold.PLP.Chemscore.Metal>
0.0000

> <Gold.PLP.Chemscore.Internal.Correction>
4.0148

