#       Name:                EN300-61466_i001
#       Creating user name   aseyller
#       Creation time:       Fri Apr 21 17:53:24 2023


#       File generated by GOLD software.
#

@<TRIPOS>MOLECULE
EN300-61466_i001|benzaldehydes|mol2|365|dock16
    30    31     1
SMALL
USER_CHARGES


@<TRIPOS>ATOM
      1 O1          29.5662  40.1551  36.5862 O.2            1 <1>                0.0000
      2 C2          29.8304  39.1150  37.1507 C.2            1 <1>                0.0000
      3 C3          28.7469  38.2420  37.6299 C.ar           1 <1>                0.0000
      4 C4          27.4364  38.7251  37.7058 C.ar           1 <1>                0.0000
      5 C5          26.4268  37.9009  38.1554 C.ar           1 <1>                0.0000
      6 C6          26.7072  36.5984  38.5313 C.ar           1 <1>                0.0000
      7 C7          28.0012  36.1133  38.4595 C.ar           1 <1>                0.0000
      8 C8          29.0211  36.9235  38.0065 C.ar           1 <1>                0.0000
      9 S9          30.6679  36.3033  37.9155 S.o2           1 <1>                0.0000
     10 O10         31.4645  37.1603  38.7220 O.2            1 <1>                0.0000
     11 O11         30.5804  34.9004  38.1234 O.2            1 <1>                0.0000
     12 N12         31.1855  36.5138  36.3567 N.pl3          1 <1>                0.0000
     13 C13         30.2318  36.8050  35.2746 C.3            1 <1>                0.0000
     14 C14         30.7367  38.0286  34.5014 C.3            1 <1>                0.0000
     15 O15         32.0942  37.8105  34.1096 O.3            1 <1>                0.0000
     16 C16         33.0018  37.6581  35.2036 C.3            1 <1>                0.0000
     17 C17         32.6136  36.4212  36.0137 C.3            1 <1>                0.0000
     18 H18         30.8608  38.8271  37.2979 H              1 <1>                0.0000
     19 H19         27.2160  39.7411  37.4131 H              1 <1>                0.0000
     20 H20         25.4145  38.2724  38.2148 H              1 <1>                0.0000
     21 H21         25.9120  35.9577  38.8825 H              1 <1>                0.0000
     22 H22         28.2122  35.0961  38.7549 H              1 <1>                0.0000
     23 H23         30.1651  35.9485  34.6036 H              1 <1>                0.0000
     24 H24         29.2501  37.0176  35.6979 H              1 <1>                0.0000
     25 H25         30.1212  38.1780  33.6143 H              1 <1>                0.0000
     26 H26         30.6789  38.9112  35.1384 H              1 <1>                0.0000
     27 H27         34.0160  37.5412  34.8216 H              1 <1>                0.0000
     28 H28         32.9523  38.5394  35.8432 H              1 <1>                0.0000
     29 H29         33.2095  36.3774  36.9253 H              1 <1>                0.0000
     30 H30         32.7851  35.5240  35.4189 H              1 <1>                0.0000
@<TRIPOS>BOND
    1    1    2 2     
    2    2    3 1     
    3    2   18 1     
    4    3    4 ar    
    5    3    8 ar    
    6    4    5 ar    
    7    4   19 1     
    8    5    6 ar    
    9    5   20 1     
   10    6    7 ar    
   11    6   21 1     
   12    7    8 ar    
   13    7   22 1     
   14    8    9 1     
   15    9   10 2     
   16    9   11 2     
   17    9   12 1     
   18   12   13 1     
   19   12   17 1     
   20   13   14 1     
   21   13   23 1     
   22   13   24 1     
   23   14   15 1     
   24   14   25 1     
   25   14   26 1     
   26   15   16 1     
   27   16   17 1     
   28   16   27 1     
   29   16   28 1     
   30   17   29 1     
   31   17   30 1     
@<TRIPOS>SUBSTRUCTURE
      1 ****           1
@<TRIPOS>COMMENT
> <Gold.Version>
2022.2.0

> <Gold.Id.Protein>
1qkm|1qkm_protein|mol2

> <Gold.Protein.RotatedTorsions>
[  496  491  490  487 ] final   51.05 input  -89.99 | X-H torsion

> <Gold.Protein.ActiveResidues>
 MET295  LEU298  THR299  LEU301  ALA302  GLU305  TRP335  MET336  LEU339  MET340 
 GLY342  LEU343  ARG346  PHE356  ILE373  ILE376  PHE377  LEU380  LYS471  GLY472 
 MET473  HIS475  LEU476  LEU477  ASN478  MET479  VAL484  VAL487 

> <Gold.Protein.RotatedAtoms>
   36.4807   33.4396   42.3494 H   0  0  0  0  0  0  0  0  0  0  0  0  # atno 496  bound_to 491 

> <Gold.Score>
     Score     S(PLP)   S(hbond)     S(cho)   S(metal)  DE(clash)   DE(tors)     intcor
     39.64     -40.35       0.00       0.00       0.00       0.00       2.36       4.01

> <Gold.PLP.Fitness>
39.6419

> <Gold.PLP.PLP>
-40.3485

> <Gold.PLP.part.hbond>
0.0000

> <Gold.PLP.part.metal>
0.0000

> <Gold.PLP.part.buried>
1.4813

> <Gold.PLP.part.nonpolar>
-41.8265

> <Gold.PLP.part.repulsive>
0.2562

> <Gold.PLP.ligand.clash>
0.0000

> <Gold.PLP.ligand.torsion>
2.3607

> <Gold.PLP.Chemscore.Hbond>
0.0000

> <Gold.PLP.Chemscore.CHOScore>
0.0000

> <Gold.PLP.Chemscore.Metal>
0.0000

> <Gold.PLP.Chemscore.Internal.Correction>
4.0148

