#       Name:                EN300-61466_i001
#       Creating user name   aseyller
#       Creation time:       Fri Apr 21 17:53:20 2023


#       File generated by GOLD software.
#

@<TRIPOS>MOLECULE
EN300-61466_i001|benzaldehydes|mol2|365|dock11
    30    31     1
SMALL
USER_CHARGES


@<TRIPOS>ATOM
      1 O1          32.7158  35.0441  37.0530 O.2            1 <1>                0.0000
      2 C2          31.7451  35.4458  37.6584 C.2            1 <1>                0.0000
      3 C3          31.2263  36.7990  37.4027 C.ar           1 <1>                0.0000
      4 C4          31.7886  37.5884  36.3941 C.ar           1 <1>                0.0000
      5 C5          31.2967  38.8549  36.1603 C.ar           1 <1>                0.0000
      6 C6          30.2494  39.3460  36.9206 C.ar           1 <1>                0.0000
      7 C7          29.6880  38.5713  37.9205 C.ar           1 <1>                0.0000
      8 C8          30.1651  37.3003  38.1628 C.ar           1 <1>                0.0000
      9 S9          29.4483  36.3156  39.4362 S.o2           1 <1>                0.0000
     10 O10         29.8628  34.9787  39.1909 O.2            1 <1>                0.0000
     11 O11         29.6997  36.9953  40.6586 O.2            1 <1>                0.0000
     12 N12         27.8076  36.3449  39.2137 N.pl3          1 <1>                0.0000
     13 C13         26.8907  35.9095  40.2789 C.3            1 <1>                0.0000
     14 C14         25.8319  36.9994  40.4811 C.3            1 <1>                0.0000
     15 O15         25.2361  37.3162  39.2207 O.3            1 <1>                0.0000
     16 C16         26.1486  37.8540  38.2606 C.3            1 <1>                0.0000
     17 C17         27.2234  36.8131  37.9468 C.3            1 <1>                0.0000
     18 H18         31.2583  34.8088  38.3822 H              1 <1>                0.0000
     19 H19         32.6060  37.2068  35.8002 H              1 <1>                0.0000
     20 H20         31.7299  39.4658  35.3821 H              1 <1>                0.0000
     21 H21         29.8684  40.3389  36.7326 H              1 <1>                0.0000
     22 H22         28.8714  38.9615  38.5097 H              1 <1>                0.0000
     23 H23         26.4068  34.9769  39.9884 H              1 <1>                0.0000
     24 H24         27.4471  35.7620  41.2046 H              1 <1>                0.0000
     25 H25         25.0646  36.6390  41.1663 H              1 <1>                0.0000
     26 H26         26.3019  37.8911  40.8960 H              1 <1>                0.0000
     27 H27         25.6090  38.1085  37.3483 H              1 <1>                0.0000
     28 H28         26.6197  38.7488  38.6674 H              1 <1>                0.0000
     29 H29         27.9993  37.2621  37.3267 H              1 <1>                0.0000
     30 H30         26.7754  35.9696  37.4217 H              1 <1>                0.0000
@<TRIPOS>BOND
    1    1    2 2     
    2    2    3 1     
    3    2   18 1     
    4    3    4 ar    
    5    3    8 ar    
    6    4    5 ar    
    7    4   19 1     
    8    5    6 ar    
    9    5   20 1     
   10    6    7 ar    
   11    6   21 1     
   12    7    8 ar    
   13    7   22 1     
   14    8    9 1     
   15    9   10 2     
   16    9   11 2     
   17    9   12 1     
   18   12   13 1     
   19   12   17 1     
   20   13   14 1     
   21   13   23 1     
   22   13   24 1     
   23   14   15 1     
   24   14   25 1     
   25   14   26 1     
   26   15   16 1     
   27   16   17 1     
   28   16   27 1     
   29   16   28 1     
   30   17   29 1     
   31   17   30 1     
@<TRIPOS>SUBSTRUCTURE
      1 ****           1
@<TRIPOS>COMMENT
> <Gold.Version>
2022.2.0

> <Gold.Id.Protein>
1qkm|1qkm_protein|mol2

> <Gold.Protein.RotatedTorsions>
[  496  491  490  487 ] final -122.47 input  -89.99 | X-H torsion

> <Gold.Protein.ActiveResidues>
 MET295  LEU298  THR299  LEU301  ALA302  GLU305  TRP335  MET336  LEU339  MET340 
 GLY342  LEU343  ARG346  PHE356  ILE373  ILE376  PHE377  LEU380  LYS471  GLY472 
 MET473  HIS475  LEU476  LEU477  ASN478  MET479  VAL484  VAL487 

> <Gold.Protein.RotatedAtoms>
   37.0463   34.3240   40.7857 H   0  0  0  0  0  0  0  0  0  0  0  0  # atno 496  bound_to 491 

> <Gold.Score>
     Score     S(PLP)   S(hbond)     S(cho)   S(metal)  DE(clash)   DE(tors)     intcor
     37.69     -47.98       0.00       0.00       0.00       9.61       2.35       4.02

> <Gold.PLP.Fitness>
37.6875

> <Gold.PLP.PLP>
-47.9764

> <Gold.PLP.part.hbond>
0.0000

> <Gold.PLP.part.metal>
0.0000

> <Gold.PLP.part.buried>
-3.7760

> <Gold.PLP.part.nonpolar>
-45.8107

> <Gold.PLP.part.repulsive>
0.5362

> <Gold.PLP.ligand.clash>
9.6058

> <Gold.PLP.ligand.torsion>
2.3492

> <Gold.PLP.Chemscore.Hbond>
0.0000

> <Gold.PLP.Chemscore.CHOScore>
0.0000

> <Gold.PLP.Chemscore.Metal>
0.0000

> <Gold.PLP.Chemscore.Internal.Correction>
4.0151

