#       Name:                EN300-61466_i001
#       Creating user name   aseyller
#       Creation time:       Fri Apr 21 17:53:17 2023


#       File generated by GOLD software.
#

@<TRIPOS>MOLECULE
EN300-61466_i001|benzaldehydes|mol2|365|dock7
    30    31     1
SMALL
USER_CHARGES


@<TRIPOS>ATOM
      1 O1          31.8423  35.4262  38.7866 O.2            1 <1>                0.0000
      2 C2          31.2354  36.3839  38.3568 C.2            1 <1>                0.0000
      3 C3          31.4338  36.8163  36.9642 C.ar           1 <1>                0.0000
      4 C4          32.3743  36.1707  36.1548 C.ar           1 <1>                0.0000
      5 C5          32.5540  36.5813  34.8510 C.ar           1 <1>                0.0000
      6 C6          31.8066  37.6296  34.3424 C.ar           1 <1>                0.0000
      7 C7          30.8744  38.2737  35.1369 C.ar           1 <1>                0.0000
      8 C8          30.6790  37.8710  36.4414 C.ar           1 <1>                0.0000
      9 S9          29.4911  38.6923  37.4509 S.o2           1 <1>                0.0000
     10 O10         30.0562  38.7707  38.7523 O.2            1 <1>                0.0000
     11 O11         29.0629  39.8329  36.7195 O.2            1 <1>                0.0000
     12 N12         28.1759  37.6934  37.5715 N.pl3          1 <1>                0.0000
     13 C13         28.3357  36.2309  37.6027 C.3            1 <1>                0.0000
     14 C14         27.5500  35.6840  38.8000 C.3            1 <1>                0.0000
     15 O15         26.2085  36.1751  38.7465 O.3            1 <1>                0.0000
     16 C16         26.1013  37.5971  38.8463 C.3            1 <1>                0.0000
     17 C17         26.8131  38.2421  37.6571 C.3            1 <1>                0.0000
     18 H18         30.5459  36.9170  38.9947 H              1 <1>                0.0000
     19 H19         32.9584  35.3528  36.5502 H              1 <1>                0.0000
     20 H20         33.2800  36.0840  34.2249 H              1 <1>                0.0000
     21 H21         31.9518  37.9466  33.3203 H              1 <1>                0.0000
     22 H22         30.2954  39.0910  34.7330 H              1 <1>                0.0000
     23 H23         27.9468  35.7994  36.6803 H              1 <1>                0.0000
     24 H24         29.3908  35.9792  37.7100 H              1 <1>                0.0000
     25 H25         27.5409  34.5947  38.7624 H              1 <1>                0.0000
     26 H26         28.0216  36.0131  39.7259 H              1 <1>                0.0000
     27 H27         25.0498  37.8841  38.8422 H              1 <1>                0.0000
     28 H28         26.5676  37.9333  39.7724 H              1 <1>                0.0000
     29 H29         26.8588  39.3220  37.7981 H              1 <1>                0.0000
     30 H30         26.2732  38.0140  36.7381 H              1 <1>                0.0000
@<TRIPOS>BOND
    1    1    2 2     
    2    2    3 1     
    3    2   18 1     
    4    3    4 ar    
    5    3    8 ar    
    6    4    5 ar    
    7    4   19 1     
    8    5    6 ar    
    9    5   20 1     
   10    6    7 ar    
   11    6   21 1     
   12    7    8 ar    
   13    7   22 1     
   14    8    9 1     
   15    9   10 2     
   16    9   11 2     
   17    9   12 1     
   18   12   13 1     
   19   12   17 1     
   20   13   14 1     
   21   13   23 1     
   22   13   24 1     
   23   14   15 1     
   24   14   25 1     
   25   14   26 1     
   26   15   16 1     
   27   16   17 1     
   28   16   27 1     
   29   16   28 1     
   30   17   29 1     
   31   17   30 1     
@<TRIPOS>SUBSTRUCTURE
      1 ****           1
@<TRIPOS>COMMENT
> <Gold.Version>
2022.2.0

> <Gold.Id.Protein>
1qkm|1qkm_protein|mol2

> <Gold.Protein.RotatedTorsions>
[  496  491  490  487 ] final  141.50 input  -89.99 | X-H torsion

> <Gold.Protein.ActiveResidues>
 MET295  LEU298  THR299  LEU301  ALA302  GLU305  TRP335  MET336  LEU339  MET340 
 GLY342  LEU343  ARG346  PHE356  ILE373  ILE376  PHE377  LEU380  LYS471  GLY472 
 MET473  HIS475  LEU476  LEU477  ASN478  MET479  VAL484  VAL487 

> <Gold.Protein.RotatedAtoms>
   37.2224   33.0356   41.3103 H   0  0  0  0  0  0  0  0  0  0  0  0  # atno 496  bound_to 491 

> <Gold.Score>
     Score     S(PLP)   S(hbond)     S(cho)   S(metal)  DE(clash)   DE(tors)     intcor
     36.13     -38.59       0.00       0.00       0.00       2.11       2.18       4.02

> <Gold.PLP.Fitness>
36.1332

> <Gold.PLP.PLP>
-38.5937

> <Gold.PLP.part.hbond>
0.0000

> <Gold.PLP.part.metal>
0.0000

> <Gold.PLP.part.buried>
3.8806

> <Gold.PLP.part.nonpolar>
-43.1084

> <Gold.PLP.part.repulsive>
0.1758

> <Gold.PLP.ligand.clash>
2.1071

> <Gold.PLP.ligand.torsion>
2.1846

> <Gold.PLP.Chemscore.Hbond>
0.0000

> <Gold.PLP.Chemscore.CHOScore>
0.0000

> <Gold.PLP.Chemscore.Metal>
0.0000

> <Gold.PLP.Chemscore.Internal.Correction>
4.0158

