#       Name:                EN300-61466_i001
#       Creating user name   aseyller
#       Creation time:       Fri Apr 21 17:53:20 2023


#       File generated by GOLD software.
#

@<TRIPOS>MOLECULE
EN300-61466_i001|benzaldehydes|mol2|365|dock10
    30    31     1
SMALL
USER_CHARGES


@<TRIPOS>ATOM
      1 O1          29.6235  39.5507  37.3028 O.2            1 <1>                0.0000
      2 C2          30.1095  38.4657  37.5412 C.2            1 <1>                0.0000
      3 C3          29.2538  37.3617  38.0044 C.ar           1 <1>                0.0000
      4 C4          27.8960  37.5833  38.2572 C.ar           1 <1>                0.0000
      5 C5          27.1007  36.5438  38.6906 C.ar           1 <1>                0.0000
      6 C6          27.6426  35.2835  38.8758 C.ar           1 <1>                0.0000
      7 C7          28.9851  35.0564  38.6283 C.ar           1 <1>                0.0000
      8 C8          29.7924  36.0846  38.1889 C.ar           1 <1>                0.0000
      9 S9          31.5014  35.7928  37.8739 S.o2           1 <1>                0.0000
     10 O10         32.2179  36.7802  38.6026 O.2            1 <1>                0.0000
     11 O11         31.7085  34.3975  38.0454 O.2            1 <1>                0.0000
     12 N12         31.7656  36.1113  36.2705 N.pl3          1 <1>                0.0000
     13 C13         30.6525  36.4625  35.3745 C.3            1 <1>                0.0000
     14 C14         31.0278  37.7400  34.6148 C.3            1 <1>                0.0000
     15 O15         32.3064  37.5634  34.0000 O.3            1 <1>                0.0000
     16 C16         33.3758  37.3496  34.9243 C.3            1 <1>                0.0000
     17 C17         33.1214  36.0576  35.7010 C.3            1 <1>                0.0000
     18 H18         31.1698  38.3081  37.4092 H              1 <1>                0.0000
     19 H19         27.4718  38.5660  38.1135 H              1 <1>                0.0000
     20 H20         26.0522  36.7133  38.8864 H              1 <1>                0.0000
     21 H21         27.0145  34.4733  39.2154 H              1 <1>                0.0000
     22 H22         29.4006  34.0705  38.7754 H              1 <1>                0.0000
     23 H23         30.4811  35.6514  34.6667 H              1 <1>                0.0000
     24 H24         29.7500  36.6357  35.9606 H              1 <1>                0.0000
     25 H25         30.2796  37.9406  33.8480 H              1 <1>                0.0000
     26 H26         31.0709  38.5779  35.3105 H              1 <1>                0.0000
     27 H27         34.3168  37.2694  34.3800 H              1 <1>                0.0000
     28 H28         33.4275  38.1861  35.6212 H              1 <1>                0.0000
     29 H29         33.8542  35.9605  36.5021 H              1 <1>                0.0000
     30 H30         33.1973  35.2036  35.0279 H              1 <1>                0.0000
@<TRIPOS>BOND
    1    1    2 2     
    2    2    3 1     
    3    2   18 1     
    4    3    4 ar    
    5    3    8 ar    
    6    4    5 ar    
    7    4   19 1     
    8    5    6 ar    
    9    5   20 1     
   10    6    7 ar    
   11    6   21 1     
   12    7    8 ar    
   13    7   22 1     
   14    8    9 1     
   15    9   10 2     
   16    9   11 2     
   17    9   12 1     
   18   12   13 1     
   19   12   17 1     
   20   13   14 1     
   21   13   23 1     
   22   13   24 1     
   23   14   15 1     
   24   14   25 1     
   25   14   26 1     
   26   15   16 1     
   27   16   17 1     
   28   16   27 1     
   29   16   28 1     
   30   17   29 1     
   31   17   30 1     
@<TRIPOS>SUBSTRUCTURE
      1 ****           1
@<TRIPOS>COMMENT
> <Gold.Version>
2022.2.0

> <Gold.Id.Protein>
1qkm|1qkm_protein|mol2

> <Gold.Protein.RotatedTorsions>
[  496  491  490  487 ] final  -11.48 input  -89.99 | X-H torsion

> <Gold.Protein.ActiveResidues>
 MET295  LEU298  THR299  LEU301  ALA302  GLU305  TRP335  MET336  LEU339  MET340 
 GLY342  LEU343  ARG346  PHE356  ILE373  ILE376  PHE377  LEU380  LYS471  GLY472 
 MET473  HIS475  LEU476  LEU477  ASN478  MET479  VAL484  VAL487 

> <Gold.Protein.RotatedAtoms>
   36.2640   34.3684   42.1284 H   0  0  0  0  0  0  0  0  0  0  0  0  # atno 496  bound_to 491 

> <Gold.Score>
     Score     S(PLP)   S(hbond)     S(cho)   S(metal)  DE(clash)   DE(tors)     intcor
     38.38     -38.99       0.00       0.00       0.00       0.00       2.31       4.02

> <Gold.PLP.Fitness>
38.3792

> <Gold.PLP.PLP>
-38.9931

> <Gold.PLP.part.hbond>
0.0000

> <Gold.PLP.part.metal>
0.0000

> <Gold.PLP.part.buried>
0.4648

> <Gold.PLP.part.nonpolar>
-40.6850

> <Gold.PLP.part.repulsive>
0.2873

> <Gold.PLP.ligand.clash>
0.0000

> <Gold.PLP.ligand.torsion>
2.3145

> <Gold.PLP.Chemscore.Hbond>
0.0000

> <Gold.PLP.Chemscore.CHOScore>
0.0000

> <Gold.PLP.Chemscore.Metal>
0.0000

> <Gold.PLP.Chemscore.Internal.Correction>
4.0151

