#       Name:                EN300-61466_i001
#       Creating user name   aseyller
#       Creation time:       Fri Apr 21 17:53:17 2023


#       File generated by GOLD software.
#

@<TRIPOS>MOLECULE
EN300-61466_i001|benzaldehydes|mol2|365|dock6
    30    31     1
SMALL
USER_CHARGES


@<TRIPOS>ATOM
      1 O1          31.8576  33.8520  37.9093 O.2            1 <1>                0.0000
      2 C2          31.4518  34.9937  37.9576 C.2            1 <1>                0.0000
      3 C3          31.7103  35.9144  36.8391 C.ar           1 <1>                0.0000
      4 C4          32.4794  35.4966  35.7480 C.ar           1 <1>                0.0000
      5 C5          32.7167  36.3650  34.7037 C.ar           1 <1>                0.0000
      6 C6          32.1962  37.6474  34.7332 C.ar           1 <1>                0.0000
      7 C7          31.4348  38.0684  35.8093 C.ar           1 <1>                0.0000
      8 C8          31.1837  37.2097  36.8588 C.ar           1 <1>                0.0000
      9 S9          30.2134  37.7478  38.2277 S.o2           1 <1>                0.0000
     10 O10         30.8587  37.2567  39.3946 O.2            1 <1>                0.0000
     11 O11         29.9430  39.1259  38.0108 O.2            1 <1>                0.0000
     12 N12         28.7571  36.9651  38.1341 N.pl3          1 <1>                0.0000
     13 C13         28.5971  35.5979  38.6540 C.3            1 <1>                0.0000
     14 C14         27.3692  35.5699  39.5713 C.3            1 <1>                0.0000
     15 O15         26.2485  36.1193  38.8742 O.3            1 <1>                0.0000
     16 C16         26.4060  37.4903  38.5010 C.3            1 <1>                0.0000
     17 C17         27.5831  37.6186  37.5340 C.3            1 <1>                0.0000
     18 H18         30.8968  35.3335  38.8195 H              1 <1>                0.0000
     19 H19         32.8863  34.4965  35.7236 H              1 <1>                0.0000
     20 H20         33.3105  36.0440  33.8607 H              1 <1>                0.0000
     21 H21         32.3856  38.3229  33.9121 H              1 <1>                0.0000
     22 H22         31.0324  39.0705  35.8251 H              1 <1>                0.0000
     23 H23         28.4523  34.9046  37.8254 H              1 <1>                0.0000
     24 H24         29.4845  35.3141  39.2198 H              1 <1>                0.0000
     25 H25         27.1516  34.5408  39.8570 H              1 <1>                0.0000
     26 H26         27.5684  36.1622  40.4645 H              1 <1>                0.0000
     27 H27         25.4953  37.8427  38.0168 H              1 <1>                0.0000
     28 H28         26.6017  38.0895  39.3902 H              1 <1>                0.0000
     29 H29         27.7986  38.6721  37.3557 H              1 <1>                0.0000
     30 H30         27.3390  37.1288  36.5914 H              1 <1>                0.0000
@<TRIPOS>BOND
    1    1    2 2     
    2    2    3 1     
    3    2   18 1     
    4    3    4 ar    
    5    3    8 ar    
    6    4    5 ar    
    7    4   19 1     
    8    5    6 ar    
    9    5   20 1     
   10    6    7 ar    
   11    6   21 1     
   12    7    8 ar    
   13    7   22 1     
   14    8    9 1     
   15    9   10 2     
   16    9   11 2     
   17    9   12 1     
   18   12   13 1     
   19   12   17 1     
   20   13   14 1     
   21   13   23 1     
   22   13   24 1     
   23   14   15 1     
   24   14   25 1     
   25   14   26 1     
   26   15   16 1     
   27   16   17 1     
   28   16   27 1     
   29   16   28 1     
   30   17   29 1     
   31   17   30 1     
@<TRIPOS>SUBSTRUCTURE
      1 ****           1
@<TRIPOS>COMMENT
> <Gold.Version>
2022.2.0

> <Gold.Id.Protein>
1qkm|1qkm_protein|mol2

> <Gold.Protein.RotatedTorsions>
[  496  491  490  487 ] final  163.13 input  -89.99 | X-H torsion

> <Gold.Protein.ActiveResidues>
 MET295  LEU298  THR299  LEU301  ALA302  GLU305  TRP335  MET336  LEU339  MET340 
 GLY342  LEU343  ARG346  PHE356  ILE373  ILE376  PHE377  LEU380  LYS471  GLY472 
 MET473  HIS475  LEU476  LEU477  ASN478  MET479  VAL484  VAL487 

> <Gold.Protein.RotatedAtoms>
   37.3042   33.2412   41.0339 H   0  0  0  0  0  0  0  0  0  0  0  0  # atno 496  bound_to 491 

> <Gold.Score>
     Score     S(PLP)   S(hbond)     S(cho)   S(metal)  DE(clash)   DE(tors)     intcor
     38.30     -38.47       0.00       0.00       0.00       0.16       2.01       4.02

> <Gold.PLP.Fitness>
38.3019

> <Gold.PLP.PLP>
-38.4742

> <Gold.PLP.part.hbond>
0.0000

> <Gold.PLP.part.metal>
0.0000

> <Gold.PLP.part.buried>
8.1573

> <Gold.PLP.part.nonpolar>
-46.3196

> <Gold.PLP.part.repulsive>
0.1902

> <Gold.PLP.ligand.clash>
0.1637

> <Gold.PLP.ligand.torsion>
2.0122

> <Gold.PLP.Chemscore.Hbond>
0.0000

> <Gold.PLP.Chemscore.CHOScore>
0.0000

> <Gold.PLP.Chemscore.Metal>
0.0000

> <Gold.PLP.Chemscore.Internal.Correction>
4.0158

