#       Name:                EN300-61466_i001
#       Creating user name   aseyller
#       Creation time:       Fri Apr 21 17:53:19 2023


#       File generated by GOLD software.
#

@<TRIPOS>MOLECULE
EN300-61466_i001|benzaldehydes|mol2|365|dock9
    30    31     1
SMALL
USER_CHARGES


@<TRIPOS>ATOM
      1 O1          30.1081  40.2567  36.3388 O.2            1 <1>                0.0000
      2 C2          29.8141  39.2023  35.8171 C.2            1 <1>                0.0000
      3 C3          30.8441  38.1722  35.6082 C.ar           1 <1>                0.0000
      4 C4          31.4881  38.0627  34.3713 C.ar           1 <1>                0.0000
      5 C5          32.4523  37.0953  34.1836 C.ar           1 <1>                0.0000
      6 C6          32.7835  36.2336  35.2151 C.ar           1 <1>                0.0000
      7 C7          32.1506  36.3352  36.4415 C.ar           1 <1>                0.0000
      8 C8          31.1881  37.3013  36.6468 C.ar           1 <1>                0.0000
      9 S9          30.3840  37.4291  38.2095 S.o2           1 <1>                0.0000
     10 O10         31.0224  36.4928  39.0669 O.2            1 <1>                0.0000
     11 O11         30.2951  38.8167  38.5027 O.2            1 <1>                0.0000
     12 N12         28.8302  36.8936  38.0064 N.pl3          1 <1>                0.0000
     13 C13         28.4657  35.4981  38.2981 C.3            1 <1>                0.0000
     14 C14         27.2356  35.5008  39.2129 C.3            1 <1>                0.0000
     15 O15         26.2159  36.3144  38.6279 O.3            1 <1>                0.0000
     16 C16         26.5767  37.6899  38.4816 C.3            1 <1>                0.0000
     17 C17         27.7719  37.8008  37.5348 C.3            1 <1>                0.0000
     18 H18         28.7954  39.0173  35.5098 H              1 <1>                0.0000
     19 H19         31.2306  38.7341  33.5655 H              1 <1>                0.0000
     20 H20         32.9503  37.0093  33.2291 H              1 <1>                0.0000
     21 H21         33.5397  35.4779  35.0618 H              1 <1>                0.0000
     22 H22         32.4143  35.6591  37.2413 H              1 <1>                0.0000
     23 H23         28.2314  34.9780  37.3692 H              1 <1>                0.0000
     24 H24         29.2950  34.9992  38.7996 H              1 <1>                0.0000
     25 H25         26.8664  34.4818  39.3293 H              1 <1>                0.0000
     26 H26         27.5081  35.9038  40.1883 H              1 <1>                0.0000
     27 H27         25.7334  38.2459  38.0721 H              1 <1>                0.0000
     28 H28         26.8468  38.1009  39.4544 H              1 <1>                0.0000
     29 H29         28.1412  38.8262  37.5283 H              1 <1>                0.0000
     30 H30         27.4706  37.5122  36.5278 H              1 <1>                0.0000
@<TRIPOS>BOND
    1    1    2 2     
    2    2    3 1     
    3    2   18 1     
    4    3    4 ar    
    5    3    8 ar    
    6    4    5 ar    
    7    4   19 1     
    8    5    6 ar    
    9    5   20 1     
   10    6    7 ar    
   11    6   21 1     
   12    7    8 ar    
   13    7   22 1     
   14    8    9 1     
   15    9   10 2     
   16    9   11 2     
   17    9   12 1     
   18   12   13 1     
   19   12   17 1     
   20   13   14 1     
   21   13   23 1     
   22   13   24 1     
   23   14   15 1     
   24   14   25 1     
   25   14   26 1     
   26   15   16 1     
   27   16   17 1     
   28   16   27 1     
   29   16   28 1     
   30   17   29 1     
   31   17   30 1     
@<TRIPOS>SUBSTRUCTURE
      1 ****           1
@<TRIPOS>COMMENT
> <Gold.Version>
2022.2.0

> <Gold.Id.Protein>
1qkm|1qkm_protein|mol2

> <Gold.Protein.RotatedTorsions>
[  496  491  490  487 ] final  -76.25 input  -89.99 | X-H torsion

> <Gold.Protein.ActiveResidues>
 MET295  LEU298  THR299  LEU301  ALA302  GLU305  TRP335  MET336  LEU339  MET340 
 GLY342  LEU343  ARG346  PHE356  ILE373  ILE376  PHE377  LEU380  LYS471  GLY472 
 MET473  HIS475  LEU476  LEU477  ASN478  MET479  VAL484  VAL487 

> <Gold.Protein.RotatedAtoms>
   36.6324   34.7193   41.2555 H   0  0  0  0  0  0  0  0  0  0  0  0  # atno 496  bound_to 491 

> <Gold.Score>
     Score     S(PLP)   S(hbond)     S(cho)   S(metal)  DE(clash)   DE(tors)     intcor
     36.98     -38.46       0.00       0.00       0.00       0.00       2.75       4.02

> <Gold.PLP.Fitness>
36.9812

> <Gold.PLP.PLP>
-38.4622

> <Gold.PLP.part.hbond>
0.0000

> <Gold.PLP.part.metal>
0.0000

> <Gold.PLP.part.buried>
6.4479

> <Gold.PLP.part.nonpolar>
-45.0583

> <Gold.PLP.part.repulsive>
0.1665

> <Gold.PLP.ligand.clash>
0.0000

> <Gold.PLP.ligand.torsion>
2.7481

> <Gold.PLP.Chemscore.Hbond>
0.0000

> <Gold.PLP.Chemscore.CHOScore>
0.0000

> <Gold.PLP.Chemscore.Metal>
0.0000

> <Gold.PLP.Chemscore.Internal.Correction>
4.0151

