#       Name:                EN300-61466_i001
#       Creating user name   aseyller
#       Creation time:       Fri Apr 21 17:53:13 2023


#       File generated by GOLD software.
#

@<TRIPOS>MOLECULE
EN300-61466_i001|benzaldehydes|mol2|365|dock1
    30    31     1
SMALL
USER_CHARGES


@<TRIPOS>ATOM
      1 O1          31.4808  35.5254  38.7925 O.2            1 <1>                0.0000
      2 C2          30.9069  36.5881  38.6857 C.2            1 <1>                0.0000
      3 C3          29.4371  36.6277  38.6236 C.ar           1 <1>                0.0000
      4 C4          28.6786  35.6736  39.3096 C.ar           1 <1>                0.0000
      5 C5          27.3020  35.7177  39.2469 C.ar           1 <1>                0.0000
      6 C6          26.6704  36.7027  38.5073 C.ar           1 <1>                0.0000
      7 C7          27.4138  37.6500  37.8255 C.ar           1 <1>                0.0000
      8 C8          28.7914  37.6228  37.8830 C.ar           1 <1>                0.0000
      9 S9          29.7359  38.8303  37.0143 S.o2           1 <1>                0.0000
     10 O10         28.8001  39.7046  36.3984 O.2            1 <1>                0.0000
     11 O11         30.7411  39.2768  37.9139 O.2            1 <1>                0.0000
     12 N12         30.5224  38.0466  35.7857 N.pl3          1 <1>                0.0000
     13 C13         31.2382  38.7987  34.7431 C.3            1 <1>                0.0000
     14 C14         32.6519  38.2201  34.6138 C.3            1 <1>                0.0000
     15 O15         32.5662  36.8049  34.4302 O.3            1 <1>                0.0000
     16 C16         31.9748  36.1069  35.5287 C.3            1 <1>                0.0000
     17 C17         30.5313  36.5771  35.7079 C.3            1 <1>                0.0000
     18 H18         31.4741  37.5061  38.6406 H              1 <1>                0.0000
     19 H19         29.1699  34.9043  39.8868 H              1 <1>                0.0000
     20 H20         26.7149  34.9815  39.7758 H              1 <1>                0.0000
     21 H21         25.5917  36.7320  38.4621 H              1 <1>                0.0000
     22 H22         26.9138  38.4152  37.2503 H              1 <1>                0.0000
     23 H23         30.7129  38.7001  33.7931 H              1 <1>                0.0000
     24 H24         31.2963  39.8504  35.0236 H              1 <1>                0.0000
     25 H25         33.1520  38.6691  33.7557 H              1 <1>                0.0000
     26 H26         33.2180  38.4360  35.5200 H              1 <1>                0.0000
     27 H27         31.9879  35.0354  35.3286 H              1 <1>                0.0000
     28 H28         32.5384  36.3151  36.4382 H              1 <1>                0.0000
     29 H29         30.1195  36.1569  36.6254 H              1 <1>                0.0000
     30 H30         29.9322  36.2566  34.8556 H              1 <1>                0.0000
@<TRIPOS>BOND
    1    1    2 2     
    2    2    3 1     
    3    2   18 1     
    4    3    4 ar    
    5    3    8 ar    
    6    4    5 ar    
    7    4   19 1     
    8    5    6 ar    
    9    5   20 1     
   10    6    7 ar    
   11    6   21 1     
   12    7    8 ar    
   13    7   22 1     
   14    8    9 1     
   15    9   10 2     
   16    9   11 2     
   17    9   12 1     
   18   12   13 1     
   19   12   17 1     
   20   13   14 1     
   21   13   23 1     
   22   13   24 1     
   23   14   15 1     
   24   14   25 1     
   25   14   26 1     
   26   15   16 1     
   27   16   17 1     
   28   16   27 1     
   29   16   28 1     
   30   17   29 1     
   31   17   30 1     
@<TRIPOS>SUBSTRUCTURE
      1 ****           1
@<TRIPOS>COMMENT
> <Gold.Version>
2022.2.0

> <Gold.Id.Protein>
1qkm|1qkm_protein|mol2

> <Gold.Protein.RotatedTorsions>
[  496  491  490  487 ] final  -77.08 input  -89.99 | X-H torsion

> <Gold.Protein.ActiveResidues>
 MET295  LEU298  THR299  LEU301  ALA302  GLU305  TRP335  MET336  LEU339  MET340 
 GLY342  LEU343  ARG346  PHE356  ILE373  ILE376  PHE377  LEU380  LYS471  GLY472 
 MET473  HIS475  LEU476  LEU477  ASN478  MET479  VAL484  VAL487 

> <Gold.Protein.RotatedAtoms>
   36.6398   34.7167   41.2442 H   0  0  0  0  0  0  0  0  0  0  0  0  # atno 496  bound_to 491 

> <Gold.Score>
     Score     S(PLP)   S(hbond)     S(cho)   S(metal)  DE(clash)   DE(tors)     intcor
     42.22     -43.16       0.00       0.00       0.00       0.00       2.49       4.04

> <Gold.PLP.Fitness>
42.2154

> <Gold.PLP.PLP>
-43.1567

> <Gold.PLP.part.hbond>
0.0000

> <Gold.PLP.part.metal>
0.0000

> <Gold.PLP.part.buried>
0.1164

> <Gold.PLP.part.nonpolar>
-44.2574

> <Gold.PLP.part.repulsive>
0.9255

> <Gold.PLP.ligand.clash>
0.0000

> <Gold.PLP.ligand.torsion>
2.4883

> <Gold.PLP.Chemscore.Hbond>
0.0000

> <Gold.PLP.Chemscore.CHOScore>
0.0000

> <Gold.PLP.Chemscore.Metal>
0.0000

> <Gold.PLP.Chemscore.Internal.Correction>
4.0354

