#       Name:                EN300-61466_i001
#       Creating user name   aseyller
#       Creation time:       Fri Apr 21 17:53:25 2023


#       File generated by GOLD software.
#

@<TRIPOS>MOLECULE
EN300-61466_i001|benzaldehydes|mol2|365|dock17
    30    31     1
SMALL
USER_CHARGES


@<TRIPOS>ATOM
      1 O1          32.5989  36.1633  37.9315 O.2            1 <1>                0.0000
      2 C2          31.7228  36.9907  38.0666 C.2            1 <1>                0.0000
      3 C3          30.3605  36.5676  38.4284 C.ar           1 <1>                0.0000
      4 C4          30.1668  35.5510  39.3694 C.ar           1 <1>                0.0000
      5 C5          28.8874  35.1606  39.7033 C.ar           1 <1>                0.0000
      6 C6          27.7962  35.7716  39.1099 C.ar           1 <1>                0.0000
      7 C7          27.9796  36.7777  38.1777 C.ar           1 <1>                0.0000
      8 C8          29.2530  37.1835  37.8373 C.ar           1 <1>                0.0000
      9 S9          29.4840  38.4652  36.6504 S.o2           1 <1>                0.0000
     10 O10         28.2181  38.6815  36.0420 O.2            1 <1>                0.0000
     11 O11         30.2170  39.4913  37.3054 O.2            1 <1>                0.0000
     12 N12         30.4750  37.8648  35.4673 N.pl3          1 <1>                0.0000
     13 C13         31.2453  38.7654  34.5951 C.3            1 <1>                0.0000
     14 C14         32.7077  38.3057  34.5960 C.3            1 <1>                0.0000
     15 O15         32.7633  36.9129  34.2782 O.3            1 <1>                0.0000
     16 C16         32.1049  36.0694  35.2262 C.3            1 <1>                0.0000
     17 C17         30.6160  36.4146  35.2612 C.3            1 <1>                0.0000
     18 H18         31.9432  38.0386  37.9259 H              1 <1>                0.0000
     19 H19         31.0171  35.0731  39.8331 H              1 <1>                0.0000
     20 H20         28.7361  34.3757  40.4296 H              1 <1>                0.0000
     21 H21         26.7965  35.4614  39.3757 H              1 <1>                0.0000
     22 H22         27.1233  37.2494  37.7188 H              1 <1>                0.0000
     23 H23         30.8477  38.7232  33.5810 H              1 <1>                0.0000
     24 H24         31.1811  39.7859  34.9728 H              1 <1>                0.0000
     25 H25         33.2677  38.8717  33.8517 H              1 <1>                0.0000
     26 H26         33.1409  38.4716  35.5824 H              1 <1>                0.0000
     27 H27         32.2315  35.0266  34.9352 H              1 <1>                0.0000
     28 H28         32.5359  36.2272  36.2149 H              1 <1>                0.0000
     29 H29         30.1338  35.8776  36.0780 H              1 <1>                0.0000
     30 H30         30.1525  36.1371  34.3145 H              1 <1>                0.0000
@<TRIPOS>BOND
    1    1    2 2     
    2    2    3 1     
    3    2   18 1     
    4    3    4 ar    
    5    3    8 ar    
    6    4    5 ar    
    7    4   19 1     
    8    5    6 ar    
    9    5   20 1     
   10    6    7 ar    
   11    6   21 1     
   12    7    8 ar    
   13    7   22 1     
   14    8    9 1     
   15    9   10 2     
   16    9   11 2     
   17    9   12 1     
   18   12   13 1     
   19   12   17 1     
   20   13   14 1     
   21   13   23 1     
   22   13   24 1     
   23   14   15 1     
   24   14   25 1     
   25   14   26 1     
   26   15   16 1     
   27   16   17 1     
   28   16   27 1     
   29   16   28 1     
   30   17   29 1     
   31   17   30 1     
@<TRIPOS>SUBSTRUCTURE
      1 ****           1
@<TRIPOS>COMMENT
> <Gold.Version>
2022.2.0

> <Gold.Id.Protein>
1qkm|1qkm_protein|mol2

> <Gold.Protein.RotatedTorsions>
[  496  491  490  487 ] final   16.26 input  -89.99 | X-H torsion

> <Gold.Protein.ActiveResidues>
 MET295  LEU298  THR299  LEU301  ALA302  GLU305  TRP335  MET336  LEU339  MET340 
 GLY342  LEU343  ARG346  PHE356  ILE373  ILE376  PHE377  LEU380  LYS471  GLY472 
 MET473  HIS475  LEU476  LEU477  ASN478  MET479  VAL484  VAL487 

> <Gold.Protein.RotatedAtoms>
   36.2897   33.9701   42.3410 H   0  0  0  0  0  0  0  0  0  0  0  0  # atno 496  bound_to 491 

> <Gold.Score>
     Score     S(PLP)   S(hbond)     S(cho)   S(metal)  DE(clash)   DE(tors)     intcor
     36.39     -37.60       0.00       0.00       0.00       0.00       2.61       4.01

> <Gold.PLP.Fitness>
36.3871

> <Gold.PLP.PLP>
-37.6010

> <Gold.PLP.part.hbond>
0.0000

> <Gold.PLP.part.metal>
0.0000

> <Gold.PLP.part.buried>
0.2221

> <Gold.PLP.part.nonpolar>
-39.5988

> <Gold.PLP.part.repulsive>
0.9344

> <Gold.PLP.ligand.clash>
0.0000

> <Gold.PLP.ligand.torsion>
2.6144

> <Gold.PLP.Chemscore.Hbond>
0.0000

> <Gold.PLP.Chemscore.CHOScore>
0.0000

> <Gold.PLP.Chemscore.Metal>
0.0000

> <Gold.PLP.Chemscore.Internal.Correction>
4.0148

