#       Name:                EN300-61466_i001
#       Creating user name   aseyller
#       Creation time:       Fri Apr 21 17:53:23 2023


#       File generated by GOLD software.
#

@<TRIPOS>MOLECULE
EN300-61466_i001|benzaldehydes|mol2|365|dock15
    30    31     1
SMALL
USER_CHARGES


@<TRIPOS>ATOM
      1 O1          29.9794  39.1517  37.4512 O.2            1 <1>                0.0000
      2 C2          30.6906  38.2623  37.8676 C.2            1 <1>                0.0000
      3 C3          30.0906  37.0279  38.3986 C.ar           1 <1>                0.0000
      4 C4          28.8380  37.0660  39.0200 C.ar           1 <1>                0.0000
      5 C5          28.2824  35.9052  39.5145 C.ar           1 <1>                0.0000
      6 C6          28.9608  34.7042  39.3975 C.ar           1 <1>                0.0000
      7 C7          30.2005  34.6583  38.7844 C.ar           1 <1>                0.0000
      8 C8          30.7671  35.8099  38.2796 C.ar           1 <1>                0.0000
      9 S9          32.3456  35.7489  37.4989 S.o2           1 <1>                0.0000
     10 O10         33.1735  36.6702  38.1954 O.2            1 <1>                0.0000
     11 O11         32.6673  34.3727  37.3511 O.2            1 <1>                0.0000
     12 N12         32.1590  36.3525  35.9682 N.pl3          1 <1>                0.0000
     13 C13         30.8203  36.5641  35.3953 C.3            1 <1>                0.0000
     14 C14         30.7519  37.9914  34.8400 C.3            1 <1>                0.0000
     15 O15         31.8596  38.2086  33.9627 O.3            1 <1>                0.0000
     16 C16         33.1367  38.1147  34.5981 C.3            1 <1>                0.0000
     17 C17         33.3271  36.6991  35.1430 C.3            1 <1>                0.0000
     18 H18         31.7645  38.3741  37.8447 H              1 <1>                0.0000
     19 H19         28.3076  38.0022  39.1124 H              1 <1>                0.0000
     20 H20         27.3155  35.9329  39.9949 H              1 <1>                0.0000
     21 H21         28.5202  33.7983  39.7868 H              1 <1>                0.0000
     22 H22         30.7237  33.7176  38.6971 H              1 <1>                0.0000
     23 H23         30.6478  35.8487  34.5911 H              1 <1>                0.0000
     24 H24         30.0647  36.4352  36.1703 H              1 <1>                0.0000
     25 H25         29.8203  38.1238  34.2900 H              1 <1>                0.0000
     26 H26         30.7941  38.7047  35.6632 H              1 <1>                0.0000
     27 H27         33.9208  38.3359  33.8739 H              1 <1>                0.0000
     28 H28         33.1877  38.8284  35.4203 H              1 <1>                0.0000
     29 H29         34.2320  36.6576  35.7492 H              1 <1>                0.0000
     30 H30         33.4067  35.9946  34.3151 H              1 <1>                0.0000
@<TRIPOS>BOND
    1    1    2 2     
    2    2    3 1     
    3    2   18 1     
    4    3    4 ar    
    5    3    8 ar    
    6    4    5 ar    
    7    4   19 1     
    8    5    6 ar    
    9    5   20 1     
   10    6    7 ar    
   11    6   21 1     
   12    7    8 ar    
   13    7   22 1     
   14    8    9 1     
   15    9   10 2     
   16    9   11 2     
   17    9   12 1     
   18   12   13 1     
   19   12   17 1     
   20   13   14 1     
   21   13   23 1     
   22   13   24 1     
   23   14   15 1     
   24   14   25 1     
   25   14   26 1     
   26   15   16 1     
   27   16   17 1     
   28   16   27 1     
   29   16   28 1     
   30   17   29 1     
   31   17   30 1     
@<TRIPOS>SUBSTRUCTURE
      1 ****           1
@<TRIPOS>COMMENT
> <Gold.Version>
2022.2.0

> <Gold.Id.Protein>
1qkm|1qkm_protein|mol2

> <Gold.Protein.RotatedTorsions>
[  496  491  490  487 ] final    2.93 input  -89.99 | X-H torsion

> <Gold.Protein.ActiveResidues>
 MET295  LEU298  THR299  LEU301  ALA302  GLU305  TRP335  MET336  LEU339  MET340 
 GLY342  LEU343  ARG346  PHE356  ILE373  ILE376  PHE377  LEU380  LYS471  GLY472 
 MET473  HIS475  LEU476  LEU477  ASN478  MET479  VAL484  VAL487 

> <Gold.Protein.RotatedAtoms>
   36.2620   34.1714   42.2593 H   0  0  0  0  0  0  0  0  0  0  0  0  # atno 496  bound_to 491 

> <Gold.Score>
     Score     S(PLP)   S(hbond)     S(cho)   S(metal)  DE(clash)   DE(tors)     intcor
     39.64     -40.65       0.00       0.00       0.00       0.00       2.51       4.01

> <Gold.PLP.Fitness>
39.6450

> <Gold.PLP.PLP>
-40.6540

> <Gold.PLP.part.hbond>
0.0000

> <Gold.PLP.part.metal>
0.0000

> <Gold.PLP.part.buried>
-0.1436

> <Gold.PLP.part.nonpolar>
-40.5076

> <Gold.PLP.part.repulsive>
0.2010

> <Gold.PLP.ligand.clash>
0.0000

> <Gold.PLP.ligand.torsion>
2.5119

> <Gold.PLP.Chemscore.Hbond>
0.0000

> <Gold.PLP.Chemscore.CHOScore>
0.0000

> <Gold.PLP.Chemscore.Metal>
0.0000

> <Gold.PLP.Chemscore.Internal.Correction>
4.0148

