#       Name:                EN300-189362_i001
#       Creating user name   aseyller
#       Creation time:       Fri Apr 21 16:46:25 2023


#       File generated by GOLD software.
#

@<TRIPOS>MOLECULE
EN300-189362_i001|aminophenols|mol2|119|dock12
    18    18     1
SMALL
USER_CHARGES


@<TRIPOS>ATOM
      1 C1          29.8379  37.2672  37.5073 C.3            1 <1>                0.0000
      2 C2          28.5989  37.1499  38.3572 C.ar           1 <1>                0.0000
      3 C3          28.5823  36.2870  39.4376 C.ar           1 <1>                0.0000
      4 C4          27.4431  36.1779  40.2204 C.ar           1 <1>                0.0000
      5 N5          27.4250  35.3041  41.3155 N.pl3          1 <1>                0.0000
      6 C6          26.3166  36.9394  39.9163 C.ar           1 <1>                0.0000
      7 O7          25.1972  36.8359  40.6817 O.3            1 <1>                0.0000
      8 C8          26.3392  37.8020  38.8334 C.ar           1 <1>                0.0000
      9 C9          27.4818  37.9101  38.0581 C.ar           1 <1>                0.0000
     10 F10         27.5025  38.7522  37.0017 F              1 <1>                0.0000
     11 H11         29.7915  36.5417  36.6952 H              1 <1>                0.0000
     12 H12         29.9001  38.2734  37.0927 H              1 <1>                0.0000
     13 H13         30.7182  37.0715  38.1196 H              1 <1>                0.0000
     14 H14         29.4567  35.6978  39.6715 H              1 <1>                0.0000
     15 H15         25.4672  38.3930  38.5955 H              1 <1>                0.0000
     16 H16         28.2099  34.7748  41.5266 H              1 <1>                0.0000
     17 H17         26.6275  35.2285  41.8625 H              1 <1>                0.0000
     18 H18         24.4432  36.4390  40.2243 H              1 <1>                0.0000
@<TRIPOS>BOND
    1    1    2 1     
    2    1   11 1     
    3    1   12 1     
    4    1   13 1     
    5    2    3 ar    
    6    2    9 ar    
    7    3    4 ar    
    8    3   14 1     
    9    4    5 1     
   10    4    6 ar    
   11    5   16 1     
   12    5   17 1     
   13    6    7 1     
   14    6    8 ar    
   15    7   18 1     
   16    8    9 ar    
   17    8   15 1     
   18    9   10 1     
@<TRIPOS>SUBSTRUCTURE
      1 ****           1
@<TRIPOS>SET
DONOR_HYDROGENS      STATIC     ATOMS    <user>   **** ""
3 16 17 18
ATOM$RED        STATIC     ATOMS    COLORGROUP SYSTEM
3 16 17 18
@<TRIPOS>COMMENT
> <Gold.Version>
2022.2.0

> <Gold.Id.Protein>
1qkm|1qkm_protein|mol2

> <Gold.Protein.RotatedTorsions>
[  496  491  490  487 ] final  157.86 input  -89.99 | X-H torsion

> <Gold.Protein.ActiveResidues>
 MET295  LEU298  THR299  LEU301  ALA302  GLU305  TRP335  MET336  LEU339  MET340 
 GLY342  LEU343  ARG346  PHE356  ILE373  ILE376  PHE377  LEU380  LYS471  GLY472 
 MET473  HIS475  LEU476  LEU477  ASN478  MET479  VAL484  VAL487 

> <Gold.Protein.RotatedAtoms>
   37.2907   33.1819   41.0960 H   0  0  0  0  0  0  0  0  0  0  0  0  # atno 496  bound_to 491 

> <Gold.Score>
     Score     S(PLP)   S(hbond)     S(cho)   S(metal)  DE(clash)   DE(tors)     intcor
     36.93     -32.02       1.64       0.00       0.00       0.00       0.00       0.00

> <Gold.PLP.Fitness>
36.9307

> <Gold.PLP.PLP>
-32.0197

> <Gold.PLP.part.hbond>
-2.0000

> <Gold.PLP.part.metal>
0.0000

> <Gold.PLP.part.buried>
-3.5955

> <Gold.PLP.part.nonpolar>
-26.7000

> <Gold.PLP.part.repulsive>
0.0462

> <Gold.PLP.ligand.clash>
0.0000

> <Gold.PLP.ligand.torsion>
0.0000

> <Gold.PLP.Chemscore.Hbond>
1.6370

> <Gold.PLP.Chemscore.CHOScore>
0.0000

> <Gold.PLP.Chemscore.Metal>
0.0000

> <Gold.Chemscore.Hbonds>
donor molecule, donor type, donor heavy atom, donor atom, acceptor molecule, acceptor atom, score
      L1  H     5    17       P1   582  0.64
      L1  H     7    18       P1  1131  1.00

> <Gold.PLP.Chemscore.Internal.Correction>
0.0000

