#       Name:                EN300-189362_i001
#       Creating user name   aseyller
#       Creation time:       Fri Apr 21 16:46:28 2023


#       File generated by GOLD software.
#

@<TRIPOS>MOLECULE
EN300-189362_i001|aminophenols|mol2|119|dock20
    18    18     1
SMALL
USER_CHARGES


@<TRIPOS>ATOM
      1 C1          32.3275  37.5044  34.9738 C.3            1 <1>                0.0000
      2 C2          31.7072  37.0624  36.2742 C.ar           1 <1>                0.0000
      3 C3          30.4600  37.5348  36.6395 C.ar           1 <1>                0.0000
      4 C4          29.8880  37.1292  37.8356 C.ar           1 <1>                0.0000
      5 N5          28.6243  37.6069  38.2069 N.pl3          1 <1>                0.0000
      6 C6          30.5720  36.2451  38.6673 C.ar           1 <1>                0.0000
      7 O7          30.0146  35.8442  39.8413 O.3            1 <1>                0.0000
      8 C8          31.8205  35.7751  38.2961 C.ar           1 <1>                0.0000
      9 C9          32.3846  36.1802  37.0977 C.ar           1 <1>                0.0000
     10 F10         33.6028  35.7209  36.7367 F              1 <1>                0.0000
     11 H11         32.9184  38.4050  35.1406 H              1 <1>                0.0000
     12 H12         32.9717  36.7128  34.5910 H              1 <1>                0.0000
     13 H13         31.5409  37.7150  34.2492 H              1 <1>                0.0000
     14 H14         29.9315  38.2200  35.9932 H              1 <1>                0.0000
     15 H15         32.3528  35.0900  38.9392 H              1 <1>                0.0000
     16 H16         28.1487  38.2221  37.6270 H              1 <1>                0.0000
     17 H17         28.2250  37.3226  39.0439 H              1 <1>                0.0000
     18 H18         30.6500  35.4873  40.4768 H              1 <1>                0.0000
@<TRIPOS>BOND
    1    1    2 1     
    2    1   11 1     
    3    1   12 1     
    4    1   13 1     
    5    2    3 ar    
    6    2    9 ar    
    7    3    4 ar    
    8    3   14 1     
    9    4    5 1     
   10    4    6 ar    
   11    5   16 1     
   12    5   17 1     
   13    6    7 1     
   14    6    8 ar    
   15    7   18 1     
   16    8    9 ar    
   17    8   15 1     
   18    9   10 1     
@<TRIPOS>SUBSTRUCTURE
      1 ****           1
@<TRIPOS>SET
DONOR_HYDROGENS      STATIC     ATOMS    <user>   **** ""
3 16 17 18
ATOM$RED        STATIC     ATOMS    COLORGROUP SYSTEM
3 16 17 18
@<TRIPOS>COMMENT
> <Gold.Version>
2022.2.0

> <Gold.Id.Protein>
1qkm|1qkm_protein|mol2

> <Gold.Protein.RotatedTorsions>
[  496  491  490  487 ] final -177.78 input  -89.99 | X-H torsion

> <Gold.Protein.ActiveResidues>
 MET295  LEU298  THR299  LEU301  ALA302  GLU305  TRP335  MET336  LEU339  MET340 
 GLY342  LEU343  ARG346  PHE356  ILE373  ILE376  PHE377  LEU380  LYS471  GLY472 
 MET473  HIS475  LEU476  LEU477  ASN478  MET479  VAL484  VAL487 

> <Gold.Protein.RotatedAtoms>
   37.3162   33.4935   40.8496 H   0  0  0  0  0  0  0  0  0  0  0  0  # atno 496  bound_to 491 

> <Gold.Score>
     Score     S(PLP)   S(hbond)     S(cho)   S(metal)  DE(clash)   DE(tors)     intcor
     33.52     -30.52       1.00       0.00       0.00       0.00       0.00       0.00

> <Gold.PLP.Fitness>
33.5218

> <Gold.PLP.PLP>
-30.5218

> <Gold.PLP.part.hbond>
-1.0000

> <Gold.PLP.part.metal>
0.0000

> <Gold.PLP.part.buried>
-2.3453

> <Gold.PLP.part.nonpolar>
-27.4153

> <Gold.PLP.part.repulsive>
0.0000

> <Gold.PLP.ligand.clash>
0.0000

> <Gold.PLP.ligand.torsion>
0.0000

> <Gold.PLP.Chemscore.Hbond>
1.0000

> <Gold.PLP.Chemscore.CHOScore>
0.0000

> <Gold.PLP.Chemscore.Metal>
0.0000

> <Gold.Chemscore.Hbonds>
donor molecule, donor type, donor heavy atom, donor atom, acceptor molecule, acceptor atom, score
      L1  H     7    18       P1   470  1.00

> <Gold.PLP.Chemscore.Internal.Correction>
0.0000

