#       Name:                EN300-189362_i001
#       Creating user name   aseyller
#       Creation time:       Fri Apr 21 16:46:26 2023


#       File generated by GOLD software.
#

@<TRIPOS>MOLECULE
EN300-189362_i001|aminophenols|mol2|119|dock16
    18    18     1
SMALL
USER_CHARGES


@<TRIPOS>ATOM
      1 C1          26.0650  36.6836  41.3627 C.3            1 <1>                0.0000
      2 C2          27.0837  36.6950  40.2522 C.ar           1 <1>                0.0000
      3 C3          28.3554  36.2007  40.4773 C.ar           1 <1>                0.0000
      4 C4          29.2938  36.2106  39.4567 C.ar           1 <1>                0.0000
      5 N5          30.5826  35.7100  39.6833 N.pl3          1 <1>                0.0000
      6 C6          28.9525  36.7188  38.2051 C.ar           1 <1>                0.0000
      7 O7          29.8697  36.7300  37.2009 O.3            1 <1>                0.0000
      8 C8          27.6774  37.2121  37.9855 C.ar           1 <1>                0.0000
      9 C9          26.7429  37.1951  39.0076 C.ar           1 <1>                0.0000
     10 F10         25.4992  37.6767  38.7920 F              1 <1>                0.0000
     11 H11         26.1303  37.6149  41.9253 H              1 <1>                0.0000
     12 H12         25.0659  36.5848  40.9381 H              1 <1>                0.0000
     13 H13         26.2620  35.8427  42.0277 H              1 <1>                0.0000
     14 H14         28.6178  35.8072  41.4483 H              1 <1>                0.0000
     15 H15         27.4106  37.6068  37.0162 H              1 <1>                0.0000
     16 H16         30.8191  35.3561  40.5549 H              1 <1>                0.0000
     17 H17         31.2385  35.7174  38.9686 H              1 <1>                0.0000
     18 H18         30.1320  35.8500  36.8979 H              1 <1>                0.0000
@<TRIPOS>BOND
    1    1    2 1     
    2    1   11 1     
    3    1   12 1     
    4    1   13 1     
    5    2    3 ar    
    6    2    9 ar    
    7    3    4 ar    
    8    3   14 1     
    9    4    5 1     
   10    4    6 ar    
   11    5   16 1     
   12    5   17 1     
   13    6    7 1     
   14    6    8 ar    
   15    7   18 1     
   16    8    9 ar    
   17    8   15 1     
   18    9   10 1     
@<TRIPOS>SUBSTRUCTURE
      1 ****           1
@<TRIPOS>SET
DONOR_HYDROGENS      STATIC     ATOMS    <user>   **** ""
3 16 17 18
ATOM$RED        STATIC     ATOMS    COLORGROUP SYSTEM
3 16 17 18
@<TRIPOS>COMMENT
> <Gold.Version>
2022.2.0

> <Gold.Id.Protein>
1qkm|1qkm_protein|mol2

> <Gold.Protein.RotatedTorsions>
[  496  491  490  487 ] final  114.80 input  -89.99 | X-H torsion

> <Gold.Protein.ActiveResidues>
 MET295  LEU298  THR299  LEU301  ALA302  GLU305  TRP335  MET336  LEU339  MET340 
 GLY342  LEU343  ARG346  PHE356  ILE373  ILE376  PHE377  LEU380  LYS471  GLY472 
 MET473  HIS475  LEU476  LEU477  ASN478  MET479  VAL484  VAL487 

> <Gold.Protein.RotatedAtoms>
   37.0392   32.9395   41.6937 H   0  0  0  0  0  0  0  0  0  0  0  0  # atno 496  bound_to 491 

> <Gold.Score>
     Score     S(PLP)   S(hbond)     S(cho)   S(metal)  DE(clash)   DE(tors)     intcor
     36.89     -33.89       1.00       0.00       0.00       0.00       0.00       0.00

> <Gold.PLP.Fitness>
36.8870

> <Gold.PLP.PLP>
-33.8870

> <Gold.PLP.part.hbond>
-1.0000

> <Gold.PLP.part.metal>
0.0000

> <Gold.PLP.part.buried>
-1.7498

> <Gold.PLP.part.nonpolar>
-31.3252

> <Gold.PLP.part.repulsive>
0.0689

> <Gold.PLP.ligand.clash>
0.0000

> <Gold.PLP.ligand.torsion>
0.0000

> <Gold.PLP.Chemscore.Hbond>
1.0000

> <Gold.PLP.Chemscore.CHOScore>
0.0000

> <Gold.PLP.Chemscore.Metal>
0.0000

> <Gold.Chemscore.Hbonds>
donor molecule, donor type, donor heavy atom, donor atom, acceptor molecule, acceptor atom, score
      L1  H     5    16       P1   470  1.00

> <Gold.PLP.Chemscore.Internal.Correction>
0.0000

