#       Name:                EN300-189362_i001
#       Creating user name   aseyller
#       Creation time:       Fri Apr 21 16:46:25 2023


#       File generated by GOLD software.
#

@<TRIPOS>MOLECULE
EN300-189362_i001|aminophenols|mol2|119|dock11
    18    18     1
SMALL
USER_CHARGES


@<TRIPOS>ATOM
      1 C1          25.0117  37.4008  40.7038 C.3            1 <1>                0.0000
      2 C2          26.4364  37.0040  40.4141 C.ar           1 <1>                0.0000
      3 C3          27.2598  36.5874  41.4439 C.ar           1 <1>                0.0000
      4 C4          28.5708  36.2221  41.1790 C.ar           1 <1>                0.0000
      5 N5          29.4061  35.7996  42.2214 N.pl3          1 <1>                0.0000
      6 C6          29.0558  36.2755  39.8739 C.ar           1 <1>                0.0000
      7 O7          30.3410  35.9177  39.6093 O.3            1 <1>                0.0000
      8 C8          28.2266  36.6932  38.8466 C.ar           1 <1>                0.0000
      9 C9          26.9165  37.0522  39.1169 C.ar           1 <1>                0.0000
     10 F10         26.1084  37.4596  38.1137 F              1 <1>                0.0000
     11 H11         24.9694  38.4671  40.9257 H              1 <1>                0.0000
     12 H12         24.3907  37.1856  39.8343 H              1 <1>                0.0000
     13 H13         24.6447  36.8363  41.5611 H              1 <1>                0.0000
     14 H14         26.8817  36.5467  42.4548 H              1 <1>                0.0000
     15 H15         28.6003  36.7357  37.8342 H              1 <1>                0.0000
     16 H16         29.0674  35.7624  43.1296 H              1 <1>                0.0000
     17 H17         30.3232  35.5443  42.0350 H              1 <1>                0.0000
     18 H18         30.8050  35.5309  40.3644 H              1 <1>                0.0000
@<TRIPOS>BOND
    1    1    2 1     
    2    1   11 1     
    3    1   12 1     
    4    1   13 1     
    5    2    3 ar    
    6    2    9 ar    
    7    3    4 ar    
    8    3   14 1     
    9    4    5 1     
   10    4    6 ar    
   11    5   16 1     
   12    5   17 1     
   13    6    7 1     
   14    6    8 ar    
   15    7   18 1     
   16    8    9 ar    
   17    8   15 1     
   18    9   10 1     
@<TRIPOS>SUBSTRUCTURE
      1 ****           1
@<TRIPOS>SET
DONOR_HYDROGENS      STATIC     ATOMS    <user>   **** ""
3 16 17 18
ATOM$RED        STATIC     ATOMS    COLORGROUP SYSTEM
3 16 17 18
@<TRIPOS>COMMENT
> <Gold.Version>
2022.2.0

> <Gold.Id.Protein>
1qkm|1qkm_protein|mol2

> <Gold.Protein.RotatedTorsions>
[  496  491  490  487 ] final   49.94 input  -89.99 | X-H torsion

> <Gold.Protein.ActiveResidues>
 MET295  LEU298  THR299  LEU301  ALA302  GLU305  TRP335  MET336  LEU339  MET340 
 GLY342  LEU343  ARG346  PHE356  ILE373  ILE376  PHE377  LEU380  LYS471  GLY472 
 MET473  HIS475  LEU476  LEU477  ASN478  MET479  VAL484  VAL487 

> <Gold.Protein.RotatedAtoms>
   36.4724   33.4553   42.3538 H   0  0  0  0  0  0  0  0  0  0  0  0  # atno 496  bound_to 491 

> <Gold.Score>
     Score     S(PLP)   S(hbond)     S(cho)   S(metal)  DE(clash)   DE(tors)     intcor
     37.76     -31.76       2.00       0.00       0.00       0.00       0.00       0.00

> <Gold.PLP.Fitness>
37.7631

> <Gold.PLP.PLP>
-31.7631

> <Gold.PLP.part.hbond>
-1.8817

> <Gold.PLP.part.metal>
0.0000

> <Gold.PLP.part.buried>
-1.5646

> <Gold.PLP.part.nonpolar>
-30.5076

> <Gold.PLP.part.repulsive>
0.8143

> <Gold.PLP.ligand.clash>
0.0000

> <Gold.PLP.ligand.torsion>
0.0000

> <Gold.PLP.Chemscore.Hbond>
2.0000

> <Gold.PLP.Chemscore.CHOScore>
0.0000

> <Gold.PLP.Chemscore.Metal>
0.0000

> <Gold.Chemscore.Hbonds>
donor molecule, donor type, donor heavy atom, donor atom, acceptor molecule, acceptor atom, score
      L1  H     5    17       P1   470  1.00
      L1  H     7    18       P1   470  1.00

> <Gold.PLP.Chemscore.Internal.Correction>
0.0000

