#       Name:                EN300-189362_i001
#       Creating user name   aseyller
#       Creation time:       Fri Apr 21 16:46:23 2023


#       File generated by GOLD software.
#

@<TRIPOS>MOLECULE
EN300-189362_i001|aminophenols|mol2|119|dock4
    18    18     1
SMALL
USER_CHARGES


@<TRIPOS>ATOM
      1 C1          26.6382  38.4770  37.4993 C.3            1 <1>                0.0000
      2 C2          26.8832  37.6013  38.7011 C.ar           1 <1>                0.0000
      3 C3          25.8287  37.2442  39.5212 C.ar           1 <1>                0.0000
      4 C4          26.0524  36.4386  40.6272 C.ar           1 <1>                0.0000
      5 N5          24.9849  36.0760  41.4590 N.pl3          1 <1>                0.0000
      6 C6          27.3410  35.9900  40.9097 C.ar           1 <1>                0.0000
      7 O7          27.5650  35.1993  41.9933 O.3            1 <1>                0.0000
      8 C8          28.3930  36.3505  40.0846 C.ar           1 <1>                0.0000
      9 C9          28.1623  37.1515  38.9785 C.ar           1 <1>                0.0000
     10 F10         29.1896  37.5025  38.1743 F              1 <1>                0.0000
     11 H11         26.7436  39.5236  37.7848 H              1 <1>                0.0000
     12 H12         27.3634  38.2377  36.7215 H              1 <1>                0.0000
     13 H13         25.6303  38.3028  37.1223 H              1 <1>                0.0000
     14 H14         24.8307  37.5931  39.3003 H              1 <1>                0.0000
     15 H15         29.3927  36.0042  40.3016 H              1 <1>                0.0000
     16 H16         24.0882  36.3885  41.2613 H              1 <1>                0.0000
     17 H17         25.1425  35.5124  42.2326 H              1 <1>                0.0000
     18 H18         26.7640  34.9653  42.4819 H              1 <1>                0.0000
@<TRIPOS>BOND
    1    1    2 1     
    2    1   11 1     
    3    1   12 1     
    4    1   13 1     
    5    2    3 ar    
    6    2    9 ar    
    7    3    4 ar    
    8    3   14 1     
    9    4    5 1     
   10    4    6 ar    
   11    5   16 1     
   12    5   17 1     
   13    6    7 1     
   14    6    8 ar    
   15    7   18 1     
   16    8    9 ar    
   17    8   15 1     
   18    9   10 1     
@<TRIPOS>SUBSTRUCTURE
      1 ****           1
@<TRIPOS>SET
DONOR_HYDROGENS      STATIC     ATOMS    <user>   **** ""
3 16 17 18
ATOM$RED        STATIC     ATOMS    COLORGROUP SYSTEM
3 16 17 18
@<TRIPOS>COMMENT
> <Gold.Version>
2022.2.0

> <Gold.Id.Protein>
1qkm|1qkm_protein|mol2

> <Gold.Protein.RotatedTorsions>
[  496  491  490  487 ] final  102.06 input  -89.99 | X-H torsion

> <Gold.Protein.ActiveResidues>
 MET295  LEU298  THR299  LEU301  ALA302  GLU305  TRP335  MET336  LEU339  MET340 
 GLY342  LEU343  ARG346  PHE356  ILE373  ILE376  PHE377  LEU380  LYS471  GLY472 
 MET473  HIS475  LEU476  LEU477  ASN478  MET479  VAL484  VAL487 

> <Gold.Protein.RotatedAtoms>
   36.9301   32.9614   41.8708 H   0  0  0  0  0  0  0  0  0  0  0  0  # atno 496  bound_to 491 

> <Gold.Score>
     Score     S(PLP)   S(hbond)     S(cho)   S(metal)  DE(clash)   DE(tors)     intcor
     42.99     -35.75       2.41       0.00       0.00       0.00       0.00       0.00

> <Gold.PLP.Fitness>
42.9912

> <Gold.PLP.PLP>
-35.7539

> <Gold.PLP.part.hbond>
-2.6025

> <Gold.PLP.part.metal>
0.0000

> <Gold.PLP.part.buried>
-4.2539

> <Gold.PLP.part.nonpolar>
-29.4158

> <Gold.PLP.part.repulsive>
0.1584

> <Gold.PLP.ligand.clash>
0.0000

> <Gold.PLP.ligand.torsion>
0.0000

> <Gold.PLP.Chemscore.Hbond>
2.4125

> <Gold.PLP.Chemscore.CHOScore>
0.0000

> <Gold.PLP.Chemscore.Metal>
0.0000

> <Gold.Chemscore.Hbonds>
donor molecule, donor type, donor heavy atom, donor atom, acceptor molecule, acceptor atom, score
      L1  H     5    16       P1  1131  0.42
      L1  H     5    17       P1   582  1.00
      L1  H     7    18       P1   582  0.99

> <Gold.PLP.Chemscore.Internal.Correction>
0.0000

