#       Name:                EN300-189362_i001
#       Creating user name   aseyller
#       Creation time:       Fri Apr 21 16:46:24 2023


#       File generated by GOLD software.
#

@<TRIPOS>MOLECULE
EN300-189362_i001|aminophenols|mol2|119|dock9
    18    18     1
SMALL
USER_CHARGES


@<TRIPOS>ATOM
      1 C1          28.5154  37.2988  37.1020 C.3            1 <1>                0.0000
      2 C2          28.1057  36.9791  38.5166 C.ar           1 <1>                0.0000
      3 C3          26.7809  37.0977  38.8948 C.ar           1 <1>                0.0000
      4 C4          26.4023  36.8040  40.1959 C.ar           1 <1>                0.0000
      5 N5          25.0604  36.9236  40.5805 N.pl3          1 <1>                0.0000
      6 C6          27.3589  36.3891  41.1201 C.ar           1 <1>                0.0000
      7 O7          26.9920  36.0995  42.3973 O.3            1 <1>                0.0000
      8 C8          28.6839  36.2718  40.7355 C.ar           1 <1>                0.0000
      9 C9          29.0551  36.5620  39.4331 C.ar           1 <1>                0.0000
     10 F10         30.3483  36.4472  39.0591 F              1 <1>                0.0000
     11 H11         28.7784  38.3541  37.0296 H              1 <1>                0.0000
     12 H12         29.3766  36.6899  36.8269 H              1 <1>                0.0000
     13 H13         27.6874  37.0834  36.4266 H              1 <1>                0.0000
     14 H14         26.0410  37.4194  38.1768 H              1 <1>                0.0000
     15 H15         29.4273  35.9507  41.4501 H              1 <1>                0.0000
     16 H16         24.3951  37.2122  39.9362 H              1 <1>                0.0000
     17 H17         24.7965  36.7180  41.4909 H              1 <1>                0.0000
     18 H18         26.8812  35.1546  42.5701 H              1 <1>                0.0000
@<TRIPOS>BOND
    1    1    2 1     
    2    1   11 1     
    3    1   12 1     
    4    1   13 1     
    5    2    3 ar    
    6    2    9 ar    
    7    3    4 ar    
    8    3   14 1     
    9    4    5 1     
   10    4    6 ar    
   11    5   16 1     
   12    5   17 1     
   13    6    7 1     
   14    6    8 ar    
   15    7   18 1     
   16    8    9 ar    
   17    8   15 1     
   18    9   10 1     
@<TRIPOS>SUBSTRUCTURE
      1 ****           1
@<TRIPOS>SET
DONOR_HYDROGENS      STATIC     ATOMS    <user>   **** ""
3 16 17 18
ATOM$RED        STATIC     ATOMS    COLORGROUP SYSTEM
3 16 17 18
@<TRIPOS>COMMENT
> <Gold.Version>
2022.2.0

> <Gold.Id.Protein>
1qkm|1qkm_protein|mol2

> <Gold.Protein.RotatedTorsions>
[  496  491  490  487 ] final   15.09 input  -89.99 | X-H torsion

> <Gold.Protein.ActiveResidues>
 MET295  LEU298  THR299  LEU301  ALA302  GLU305  TRP335  MET336  LEU339  MET340 
 GLY342  LEU343  ARG346  PHE356  ILE373  ILE376  PHE377  LEU380  LYS471  GLY472 
 MET473  HIS475  LEU476  LEU477  ASN478  MET479  VAL484  VAL487 

> <Gold.Protein.RotatedAtoms>
   36.2862   33.9883   42.3355 H   0  0  0  0  0  0  0  0  0  0  0  0  # atno 496  bound_to 491 

> <Gold.Score>
     Score     S(PLP)   S(hbond)     S(cho)   S(metal)  DE(clash)   DE(tors)     intcor
     36.31     -34.41       0.63       0.00       0.00       0.00       0.00       0.00

> <Gold.PLP.Fitness>
36.3089

> <Gold.PLP.PLP>
-34.4141

> <Gold.PLP.part.hbond>
-1.1339

> <Gold.PLP.part.metal>
0.0000

> <Gold.PLP.part.buried>
-3.0867

> <Gold.PLP.part.nonpolar>
-30.9883

> <Gold.PLP.part.repulsive>
0.1653

> <Gold.PLP.ligand.clash>
0.0000

> <Gold.PLP.ligand.torsion>
0.0000

> <Gold.PLP.Chemscore.Hbond>
0.6316

> <Gold.PLP.Chemscore.CHOScore>
0.0000

> <Gold.PLP.Chemscore.Metal>
0.0000

> <Gold.Chemscore.Hbonds>
donor molecule, donor type, donor heavy atom, donor atom, acceptor molecule, acceptor atom, score
      L1  H     5    16       P1  1131  0.12
      L1  H     7    18       P1   582  0.51

> <Gold.PLP.Chemscore.Internal.Correction>
0.0000

