#       Name:                EN300-189362_i001
#       Creating user name   aseyller
#       Creation time:       Fri Apr 21 16:46:23 2023


#       File generated by GOLD software.
#

@<TRIPOS>MOLECULE
EN300-189362_i001|aminophenols|mol2|119|dock5
    18    18     1
SMALL
USER_CHARGES


@<TRIPOS>ATOM
      1 C1          28.9665  37.1683  37.3703 C.3            1 <1>                0.0000
      2 C2          28.3086  36.9846  38.7137 C.ar           1 <1>                0.0000
      3 C3          29.0426  36.5010  39.7812 C.ar           1 <1>                0.0000
      4 C4          28.4388  36.3314  41.0177 C.ar           1 <1>                0.0000
      5 N5          29.1813  35.8417  42.1002 N.pl3          1 <1>                0.0000
      6 C6          27.0922  36.6494  41.1818 C.ar           1 <1>                0.0000
      7 O7          26.4959  36.4850  42.3931 O.3            1 <1>                0.0000
      8 C8          26.3623  37.1336  40.1093 C.ar           1 <1>                0.0000
      9 C9          26.9724  37.3054  38.8778 C.ar           1 <1>                0.0000
     10 F10         26.2592  37.7779  37.8322 F              1 <1>                0.0000
     11 H11         28.8672  36.2518  36.7887 H              1 <1>                0.0000
     12 H12         28.4853  37.9896  36.8394 H              1 <1>                0.0000
     13 H13         30.0231  37.3964  37.5115 H              1 <1>                0.0000
     14 H14         30.0863  36.2552  39.6517 H              1 <1>                0.0000
     15 H15         25.3184  37.3805  40.2340 H              1 <1>                0.0000
     16 H16         30.1188  35.6210  41.9850 H              1 <1>                0.0000
     17 H17         28.7579  35.7233  42.9649 H              1 <1>                0.0000
     18 H18         26.5143  35.5753  42.7203 H              1 <1>                0.0000
@<TRIPOS>BOND
    1    1    2 1     
    2    1   11 1     
    3    1   12 1     
    4    1   13 1     
    5    2    3 ar    
    6    2    9 ar    
    7    3    4 ar    
    8    3   14 1     
    9    4    5 1     
   10    4    6 ar    
   11    5   16 1     
   12    5   17 1     
   13    6    7 1     
   14    6    8 ar    
   15    7   18 1     
   16    8    9 ar    
   17    8   15 1     
   18    9   10 1     
@<TRIPOS>SUBSTRUCTURE
      1 ****           1
@<TRIPOS>SET
DONOR_HYDROGENS      STATIC     ATOMS    <user>   **** ""
3 16 17 18
ATOM$RED        STATIC     ATOMS    COLORGROUP SYSTEM
3 16 17 18
@<TRIPOS>COMMENT
> <Gold.Version>
2022.2.0

> <Gold.Id.Protein>
1qkm|1qkm_protein|mol2

> <Gold.Protein.RotatedTorsions>
[  496  491  490  487 ] final  154.50 input  -89.99 | X-H torsion

> <Gold.Protein.ActiveResidues>
 MET295  LEU298  THR299  LEU301  ALA302  GLU305  TRP335  MET336  LEU339  MET340 
 GLY342  LEU343  ARG346  PHE356  ILE373  ILE376  PHE377  LEU380  LYS471  GLY472 
 MET473  HIS475  LEU476  LEU477  ASN478  MET479  VAL484  VAL487 

> <Gold.Protein.RotatedAtoms>
   37.2799   33.1472   41.1374 H   0  0  0  0  0  0  0  0  0  0  0  0  # atno 496  bound_to 491 

> <Gold.Score>
     Score     S(PLP)   S(hbond)     S(cho)   S(metal)  DE(clash)   DE(tors)     intcor
     39.51     -33.58       1.98       0.00       0.00       0.00       0.00       0.00

> <Gold.PLP.Fitness>
39.5061

> <Gold.PLP.PLP>
-33.5781

> <Gold.PLP.part.hbond>
-1.6168

> <Gold.PLP.part.metal>
0.0000

> <Gold.PLP.part.buried>
-3.9878

> <Gold.PLP.part.nonpolar>
-28.3630

> <Gold.PLP.part.repulsive>
0.1092

> <Gold.PLP.ligand.clash>
0.0000

> <Gold.PLP.ligand.torsion>
0.0000

> <Gold.PLP.Chemscore.Hbond>
1.9760

> <Gold.PLP.Chemscore.CHOScore>
0.0000

> <Gold.PLP.Chemscore.Metal>
0.0000

> <Gold.Chemscore.Hbonds>
donor molecule, donor type, donor heavy atom, donor atom, acceptor molecule, acceptor atom, score
      L1  H     5    16       P1   470  1.00
      L1  H     7    18       P1   582  0.98

> <Gold.PLP.Chemscore.Internal.Correction>
0.0000

