#       Name:                EN300-189362_i001
#       Creating user name   aseyller
#       Creation time:       Fri Apr 21 16:46:23 2023


#       File generated by GOLD software.
#

@<TRIPOS>MOLECULE
EN300-189362_i001|aminophenols|mol2|119|dock6
    18    18     1
SMALL
USER_CHARGES


@<TRIPOS>ATOM
      1 C1          30.2800  35.5114  39.3971 C.3            1 <1>                0.0000
      2 C2          28.8637  36.0206  39.4751 C.ar           1 <1>                0.0000
      3 C3          28.0695  35.6882  40.5571 C.ar           1 <1>                0.0000
      4 C4          26.7663  36.1558  40.6303 C.ar           1 <1>                0.0000
      5 N5          25.9604  35.8199  41.7261 N.pl3          1 <1>                0.0000
      6 C6          26.2598  36.9610  39.6123 C.ar           1 <1>                0.0000
      7 O7          24.9821  37.4224  39.6801 O.3            1 <1>                0.0000
      8 C8          27.0599  37.2910  38.5314 C.ar           1 <1>                0.0000
      9 C9          28.3625  36.8247  38.4664 C.ar           1 <1>                0.0000
     10 F10         29.1421  37.1473  37.4112 F              1 <1>                0.0000
     11 H11         30.2931  34.5518  38.8803 H              1 <1>                0.0000
     12 H12         30.8938  36.2272  38.8503 H              1 <1>                0.0000
     13 H13         30.6772  35.3870  40.4046 H              1 <1>                0.0000
     14 H14         28.4642  35.0639  41.3451 H              1 <1>                0.0000
     15 H15         26.6695  37.9147  37.7409 H              1 <1>                0.0000
     16 H16         26.3142  35.2595  42.4345 H              1 <1>                0.0000
     17 H17         25.0488  36.1475  41.7764 H              1 <1>                0.0000
     18 H18         24.3350  36.7519  39.9385 H              1 <1>                0.0000
@<TRIPOS>BOND
    1    1    2 1     
    2    1   11 1     
    3    1   12 1     
    4    1   13 1     
    5    2    3 ar    
    6    2    9 ar    
    7    3    4 ar    
    8    3   14 1     
    9    4    5 1     
   10    4    6 ar    
   11    5   16 1     
   12    5   17 1     
   13    6    7 1     
   14    6    8 ar    
   15    7   18 1     
   16    8    9 ar    
   17    8   15 1     
   18    9   10 1     
@<TRIPOS>SUBSTRUCTURE
      1 ****           1
@<TRIPOS>SET
DONOR_HYDROGENS      STATIC     ATOMS    <user>   **** ""
3 16 17 18
ATOM$RED        STATIC     ATOMS    COLORGROUP SYSTEM
3 16 17 18
@<TRIPOS>COMMENT
> <Gold.Version>
2022.2.0

> <Gold.Id.Protein>
1qkm|1qkm_protein|mol2

> <Gold.Protein.RotatedTorsions>
[  496  491  490  487 ] final -135.09 input  -89.99 | X-H torsion

> <Gold.Protein.ActiveResidues>
 MET295  LEU298  THR299  LEU301  ALA302  GLU305  TRP335  MET336  LEU339  MET340 
 GLY342  LEU343  ARG346  PHE356  ILE373  ILE376  PHE377  LEU380  LYS471  GLY472 
 MET473  HIS475  LEU476  LEU477  ASN478  MET479  VAL484  VAL487 

> <Gold.Protein.RotatedAtoms>
   37.1413   34.1472   40.7335 H   0  0  0  0  0  0  0  0  0  0  0  0  # atno 496  bound_to 491 

> <Gold.Score>
     Score     S(PLP)   S(hbond)     S(cho)   S(metal)  DE(clash)   DE(tors)     intcor
     37.54     -31.66       1.96       0.00       0.00       0.00       0.00       0.00

> <Gold.PLP.Fitness>
37.5371

> <Gold.PLP.PLP>
-31.6571

> <Gold.PLP.part.hbond>
-1.6099

> <Gold.PLP.part.metal>
0.0000

> <Gold.PLP.part.buried>
0.0603

> <Gold.PLP.part.nonpolar>
-30.4466

> <Gold.PLP.part.repulsive>
0.0644

> <Gold.PLP.ligand.clash>
0.0000

> <Gold.PLP.ligand.torsion>
0.0000

> <Gold.PLP.Chemscore.Hbond>
1.9600

> <Gold.PLP.Chemscore.CHOScore>
0.0000

> <Gold.PLP.Chemscore.Metal>
0.0000

> <Gold.Chemscore.Hbonds>
donor molecule, donor type, donor heavy atom, donor atom, acceptor molecule, acceptor atom, score
      L1  H     5    16       P1   582  0.96
      L1  H     7    18       P1  1131  1.00

> <Gold.PLP.Chemscore.Internal.Correction>
0.0000

