#       Name:                EN300-189362_i001
#       Creating user name   aseyller
#       Creation time:       Fri Apr 21 16:46:22 2023


#       File generated by GOLD software.
#

@<TRIPOS>MOLECULE
EN300-189362_i001|aminophenols|mol2|119|dock1
    18    18     1
SMALL
USER_CHARGES


@<TRIPOS>ATOM
      1 C1          27.5955  38.0342  37.2468 C.3            1 <1>                0.0000
      2 C2          27.9365  37.3574  38.5495 C.ar           1 <1>                0.0000
      3 C3          26.9279  36.9915  39.4217 C.ar           1 <1>                0.0000
      4 C4          27.2400  36.3688  40.6206 C.ar           1 <1>                0.0000
      5 N5          26.2190  35.9974  41.5053 N.pl3          1 <1>                0.0000
      6 C6          28.5709  36.1128  40.9436 C.ar           1 <1>                0.0000
      7 O7          28.8817  35.5018  42.1184 O.3            1 <1>                0.0000
      8 C8          29.5767  36.4812  40.0661 C.ar           1 <1>                0.0000
      9 C9          29.2582  37.0985  38.8678 C.ar           1 <1>                0.0000
     10 F10         30.2405  37.4574  38.0125 F              1 <1>                0.0000
     11 H11         27.5778  39.1143  37.3922 H              1 <1>                0.0000
     12 H12         28.3461  37.7805  36.4983 H              1 <1>                0.0000
     13 H13         26.6159  37.6970  36.9079 H              1 <1>                0.0000
     14 H14         25.8969  37.1909  39.1693 H              1 <1>                0.0000
     15 H15         30.6091  36.2840  40.3144 H              1 <1>                0.0000
     16 H16         25.2927  36.1758  41.2793 H              1 <1>                0.0000
     17 H17         26.4384  35.5619  42.3438 H              1 <1>                0.0000
     18 H18         29.7786  35.1418  42.1492 H              1 <1>                0.0000
@<TRIPOS>BOND
    1    1    2 1     
    2    1   11 1     
    3    1   12 1     
    4    1   13 1     
    5    2    3 ar    
    6    2    9 ar    
    7    3    4 ar    
    8    3   14 1     
    9    4    5 1     
   10    4    6 ar    
   11    5   16 1     
   12    5   17 1     
   13    6    7 1     
   14    6    8 ar    
   15    7   18 1     
   16    8    9 ar    
   17    8   15 1     
   18    9   10 1     
@<TRIPOS>SUBSTRUCTURE
      1 ****           1
@<TRIPOS>SET
DONOR_HYDROGENS      STATIC     ATOMS    <user>   **** ""
3 16 17 18
ATOM$RED        STATIC     ATOMS    COLORGROUP SYSTEM
3 16 17 18
@<TRIPOS>COMMENT
> <Gold.Version>
2022.2.0

> <Gold.Id.Protein>
1qkm|1qkm_protein|mol2

> <Gold.Protein.RotatedTorsions>
[  496  491  490  487 ] final  -72.31 input  -89.99 | X-H torsion

> <Gold.Protein.ActiveResidues>
 MET295  LEU298  THR299  LEU301  ALA302  GLU305  TRP335  MET336  LEU339  MET340 
 GLY342  LEU343  ARG346  PHE356  ILE373  ILE376  PHE377  LEU380  LYS471  GLY472 
 MET473  HIS475  LEU476  LEU477  ASN478  MET479  VAL484  VAL487 

> <Gold.Protein.RotatedAtoms>
   36.5980   34.7290   41.3096 H   0  0  0  0  0  0  0  0  0  0  0  0  # atno 496  bound_to 491 

> <Gold.Score>
     Score     S(PLP)   S(hbond)     S(cho)   S(metal)  DE(clash)   DE(tors)     intcor
     40.26     -34.26       2.00       0.00       0.00       0.00       0.00       0.00

> <Gold.PLP.Fitness>
40.2618

> <Gold.PLP.PLP>
-34.2618

> <Gold.PLP.part.hbond>
-3.0000

> <Gold.PLP.part.metal>
0.0000

> <Gold.PLP.part.buried>
-3.2655

> <Gold.PLP.part.nonpolar>
-29.0569

> <Gold.PLP.part.repulsive>
0.0533

> <Gold.PLP.ligand.clash>
0.0000

> <Gold.PLP.ligand.torsion>
0.0000

> <Gold.PLP.Chemscore.Hbond>
2.0000

> <Gold.PLP.Chemscore.CHOScore>
0.0000

> <Gold.PLP.Chemscore.Metal>
0.0000

> <Gold.Chemscore.Hbonds>
donor molecule, donor type, donor heavy atom, donor atom, acceptor molecule, acceptor atom, score
      L1  H     5    17       P1   582  1.00
      L1  H     7    18       P1   470  1.00

> <Gold.PLP.Chemscore.Internal.Correction>
0.0000

