#       Name:                EN300-189362_i001
#       Creating user name   aseyller
#       Creation time:       Fri Apr 21 16:46:27 2023


#       File generated by GOLD software.
#

@<TRIPOS>MOLECULE
EN300-189362_i001|aminophenols|mol2|119|dock19
    18    18     1
SMALL
USER_CHARGES


@<TRIPOS>ATOM
      1 C1          31.4708  35.2578  38.4474 C.3            1 <1>                0.0000
      2 C2          31.8013  36.1232  37.2587 C.ar           1 <1>                0.0000
      3 C3          32.9991  35.9491  36.5901 C.ar           1 <1>                0.0000
      4 C4          33.3047  36.7446  35.4964 C.ar           1 <1>                0.0000
      5 N5          34.5180  36.5693  34.8179 N.pl3          1 <1>                0.0000
      6 C6          32.4026  37.7183  35.0729 C.ar           1 <1>                0.0000
      7 O7          32.6980  38.5006  34.0002 O.3            1 <1>                0.0000
      8 C8          31.2045  37.8878  35.7461 C.ar           1 <1>                0.0000
      9 C9          30.9029  37.0869  36.8350 C.ar           1 <1>                0.0000
     10 F10         29.7335  37.2533  37.4910 F              1 <1>                0.0000
     11 H11         31.8382  35.7336  39.3566 H              1 <1>                0.0000
     12 H12         30.3904  35.1305  38.5148 H              1 <1>                0.0000
     13 H13         31.9449  34.2832  38.3301 H              1 <1>                0.0000
     14 H14         33.6969  35.1937  36.9201 H              1 <1>                0.0000
     15 H15         30.5038  38.6421  35.4199 H              1 <1>                0.0000
     16 H16         35.1451  35.8908  35.1134 H              1 <1>                0.0000
     17 H17         34.7309  37.1263  34.0529 H              1 <1>                0.0000
     18 H18         33.6335  38.4956  33.7555 H              1 <1>                0.0000
@<TRIPOS>BOND
    1    1    2 1     
    2    1   11 1     
    3    1   12 1     
    4    1   13 1     
    5    2    3 ar    
    6    2    9 ar    
    7    3    4 ar    
    8    3   14 1     
    9    4    5 1     
   10    4    6 ar    
   11    5   16 1     
   12    5   17 1     
   13    6    7 1     
   14    6    8 ar    
   15    7   18 1     
   16    8    9 ar    
   17    8   15 1     
   18    9   10 1     
@<TRIPOS>SUBSTRUCTURE
      1 ****           1
@<TRIPOS>SET
DONOR_HYDROGENS      STATIC     ATOMS    <user>   **** ""
3 16 17 18
ATOM$RED        STATIC     ATOMS    COLORGROUP SYSTEM
3 16 17 18
@<TRIPOS>COMMENT
> <Gold.Version>
2022.2.0

> <Gold.Id.Protein>
1qkm|1qkm_protein|mol2

> <Gold.Protein.RotatedTorsions>
[  496  491  490  487 ] final  149.85 input  -89.99 | X-H torsion

> <Gold.Protein.ActiveResidues>
 MET295  LEU298  THR299  LEU301  ALA302  GLU305  TRP335  MET336  LEU339  MET340 
 GLY342  LEU343  ARG346  PHE356  ILE373  ILE376  PHE377  LEU380  LYS471  GLY472 
 MET473  HIS475  LEU476  LEU477  ASN478  MET479  VAL484  VAL487 

> <Gold.Protein.RotatedAtoms>
   37.2621   33.1029   41.1972 H   0  0  0  0  0  0  0  0  0  0  0  0  # atno 496  bound_to 491 

> <Gold.Score>
     Score     S(PLP)   S(hbond)     S(cho)   S(metal)  DE(clash)   DE(tors)     intcor
     34.34     -28.56       1.93       0.00       0.00       0.00       0.00       0.00

> <Gold.PLP.Fitness>
34.3374

> <Gold.PLP.PLP>
-28.5587

> <Gold.PLP.part.hbond>
-2.0000

> <Gold.PLP.part.metal>
0.0000

> <Gold.PLP.part.buried>
0.2171

> <Gold.PLP.part.nonpolar>
-26.8869

> <Gold.PLP.part.repulsive>
0.0858

> <Gold.PLP.ligand.clash>
0.0000

> <Gold.PLP.ligand.torsion>
0.0000

> <Gold.PLP.Chemscore.Hbond>
1.9263

> <Gold.PLP.Chemscore.CHOScore>
0.0000

> <Gold.PLP.Chemscore.Metal>
0.0000

> <Gold.Chemscore.Hbonds>
donor molecule, donor type, donor heavy atom, donor atom, acceptor molecule, acceptor atom, score
      L1  H     5    17       P1  3229  1.00
      L1  H     7    18       P1  3229  0.93

> <Gold.PLP.Chemscore.Internal.Correction>
0.0000

