#       Name:                EN300-189362_i001
#       Creating user name   aseyller
#       Creation time:       Fri Apr 21 16:46:23 2023


#       File generated by GOLD software.
#

@<TRIPOS>MOLECULE
EN300-189362_i001|aminophenols|mol2|119|dock3
    18    18     1
SMALL
USER_CHARGES


@<TRIPOS>ATOM
      1 C1          30.1777  37.2881  38.4002 C.3            1 <1>                0.0000
      2 C2          28.9245  36.9693  39.1742 C.ar           1 <1>                0.0000
      3 C3          29.0151  36.3810  40.4223 C.ar           1 <1>                0.0000
      4 C4          27.8630  36.0871  41.1356 C.ar           1 <1>                0.0000
      5 N5          27.9533  35.4911  42.4003 N.pl3          1 <1>                0.0000
      6 C6          26.6153  36.3861  40.5923 C.ar           1 <1>                0.0000
      7 O7          25.4826  36.1000  41.2886 O.3            1 <1>                0.0000
      8 C8          26.5308  36.9755  39.3422 C.ar           1 <1>                0.0000
      9 C9          27.6854  37.2711  38.6367 C.ar           1 <1>                0.0000
     10 F10         27.6015  37.8463  37.4170 F              1 <1>                0.0000
     11 H11         30.4472  36.4349  37.7777 H              1 <1>                0.0000
     12 H12         30.0026  38.1585  37.7679 H              1 <1>                0.0000
     13 H13         30.9896  37.5014  39.0955 H              1 <1>                0.0000
     14 H14         29.9833  36.1502  40.8414 H              1 <1>                0.0000
     15 H15         25.5648  37.2080  38.9189 H              1 <1>                0.0000
     16 H16         28.8225  35.2837  42.7778 H              1 <1>                0.0000
     17 H17         27.1468  35.2858  42.8985 H              1 <1>                0.0000
     18 H18         25.6414  35.6559  42.1329 H              1 <1>                0.0000
@<TRIPOS>BOND
    1    1    2 1     
    2    1   11 1     
    3    1   12 1     
    4    1   13 1     
    5    2    3 ar    
    6    2    9 ar    
    7    3    4 ar    
    8    3   14 1     
    9    4    5 1     
   10    4    6 ar    
   11    5   16 1     
   12    5   17 1     
   13    6    7 1     
   14    6    8 ar    
   15    7   18 1     
   16    8    9 ar    
   17    8   15 1     
   18    9   10 1     
@<TRIPOS>SUBSTRUCTURE
      1 ****           1
@<TRIPOS>SET
DONOR_HYDROGENS      STATIC     ATOMS    <user>   **** ""
3 16 17 18
ATOM$RED        STATIC     ATOMS    COLORGROUP SYSTEM
3 16 17 18
@<TRIPOS>COMMENT
> <Gold.Version>
2022.2.0

> <Gold.Id.Protein>
1qkm|1qkm_protein|mol2

> <Gold.Protein.RotatedTorsions>
[  496  491  490  487 ] final  -74.62 input  -89.99 | X-H torsion

> <Gold.Protein.ActiveResidues>
 MET295  LEU298  THR299  LEU301  ALA302  GLU305  TRP335  MET336  LEU339  MET340 
 GLY342  LEU343  ARG346  PHE356  ILE373  ILE376  PHE377  LEU380  LYS471  GLY472 
 MET473  HIS475  LEU476  LEU477  ASN478  MET479  VAL484  VAL487 

> <Gold.Protein.RotatedAtoms>
   36.6182   34.7238   41.2776 H   0  0  0  0  0  0  0  0  0  0  0  0  # atno 496  bound_to 491 

> <Gold.Score>
     Score     S(PLP)   S(hbond)     S(cho)   S(metal)  DE(clash)   DE(tors)     intcor
     42.18     -36.18       2.00       0.00       0.00       0.00       0.00       0.00

> <Gold.PLP.Fitness>
42.1808

> <Gold.PLP.PLP>
-36.1808

> <Gold.PLP.part.hbond>
-1.9842

> <Gold.PLP.part.metal>
0.0000

> <Gold.PLP.part.buried>
-2.2819

> <Gold.PLP.part.nonpolar>
-31.2013

> <Gold.PLP.part.repulsive>
0.0855

> <Gold.PLP.ligand.clash>
0.0000

> <Gold.PLP.ligand.torsion>
0.0000

> <Gold.PLP.Chemscore.Hbond>
2.0000

> <Gold.PLP.Chemscore.CHOScore>
0.0000

> <Gold.PLP.Chemscore.Metal>
0.0000

> <Gold.Chemscore.Hbonds>
donor molecule, donor type, donor heavy atom, donor atom, acceptor molecule, acceptor atom, score
      L1  H     5    17       P1   582  1.00
      L1  H     7    18       P1   582  1.00

> <Gold.PLP.Chemscore.Internal.Correction>
0.0000

