#       Name:                EN300-189362_i001
#       Creating user name   aseyller
#       Creation time:       Fri Apr 21 16:46:25 2023


#       File generated by GOLD software.
#

@<TRIPOS>MOLECULE
EN300-189362_i001|aminophenols|mol2|119|dock10
    18    18     1
SMALL
USER_CHARGES


@<TRIPOS>ATOM
      1 C1          30.2885  36.1772  38.8800 C.3            1 <1>                0.0000
      2 C2          31.0839  36.3255  37.6085 C.ar           1 <1>                0.0000
      3 C3          30.9406  37.4616  36.8335 C.ar           1 <1>                0.0000
      4 C4          31.6716  37.5996  35.6634 C.ar           1 <1>                0.0000
      5 N5          31.5275  38.7502  34.8772 N.pl3          1 <1>                0.0000
      6 C6          32.5503  36.5918  35.2713 C.ar           1 <1>                0.0000
      7 O7          33.2697  36.7230  34.1246 O.3            1 <1>                0.0000
      8 C8          32.6899  35.4565  36.0517 C.ar           1 <1>                0.0000
      9 C9          31.9605  35.3267  37.2219 C.ar           1 <1>                0.0000
     10 F10         32.0976  34.2185  37.9824 F              1 <1>                0.0000
     11 H11         29.3401  35.6871  38.6602 H              1 <1>                0.0000
     12 H12         30.8521  35.5754  39.5929 H              1 <1>                0.0000
     13 H13         30.0983  37.1622  39.3063 H              1 <1>                0.0000
     14 H14         30.2590  38.2416  37.1393 H              1 <1>                0.0000
     15 H15         33.3701  34.6739  35.7497 H              1 <1>                0.0000
     16 H16         30.9158  39.4514  35.1512 H              1 <1>                0.0000
     17 H17         32.0393  38.8457  34.0587 H              1 <1>                0.0000
     18 H18         32.9325  36.1972  33.3864 H              1 <1>                0.0000
@<TRIPOS>BOND
    1    1    2 1     
    2    1   11 1     
    3    1   12 1     
    4    1   13 1     
    5    2    3 ar    
    6    2    9 ar    
    7    3    4 ar    
    8    3   14 1     
    9    4    5 1     
   10    4    6 ar    
   11    5   16 1     
   12    5   17 1     
   13    6    7 1     
   14    6    8 ar    
   15    7   18 1     
   16    8    9 ar    
   17    8   15 1     
   18    9   10 1     
@<TRIPOS>SUBSTRUCTURE
      1 ****           1
@<TRIPOS>SET
DONOR_HYDROGENS      STATIC     ATOMS    <user>   **** ""
3 16 17 18
ATOM$RED        STATIC     ATOMS    COLORGROUP SYSTEM
3 16 17 18
@<TRIPOS>COMMENT
> <Gold.Version>
2022.2.0

> <Gold.Id.Protein>
1qkm|1qkm_protein|mol2

> <Gold.Protein.RotatedTorsions>
[  496  491  490  487 ] final  100.92 input  -89.99 | X-H torsion

> <Gold.Protein.ActiveResidues>
 MET295  LEU298  THR299  LEU301  ALA302  GLU305  TRP335  MET336  LEU339  MET340 
 GLY342  LEU343  ARG346  PHE356  ILE373  ILE376  PHE377  LEU380  LYS471  GLY472 
 MET473  HIS475  LEU476  LEU477  ASN478  MET479  VAL484  VAL487 

> <Gold.Protein.RotatedAtoms>
   36.9199   32.9655   41.8860 H   0  0  0  0  0  0  0  0  0  0  0  0  # atno 496  bound_to 491 

> <Gold.Score>
     Score     S(PLP)   S(hbond)     S(cho)   S(metal)  DE(clash)   DE(tors)     intcor
     36.59     -33.59       1.00       0.00       0.00       0.00       0.00       0.00

> <Gold.PLP.Fitness>
36.5911

> <Gold.PLP.PLP>
-33.5911

> <Gold.PLP.part.hbond>
-2.0296

> <Gold.PLP.part.metal>
0.0000

> <Gold.PLP.part.buried>
-3.5495

> <Gold.PLP.part.nonpolar>
-28.0888

> <Gold.PLP.part.repulsive>
0.0000

> <Gold.PLP.ligand.clash>
0.0000

> <Gold.PLP.ligand.torsion>
0.0000

> <Gold.PLP.Chemscore.Hbond>
1.0000

> <Gold.PLP.Chemscore.CHOScore>
0.0000

> <Gold.PLP.Chemscore.Metal>
0.0000

> <Gold.Chemscore.Hbonds>
donor molecule, donor type, donor heavy atom, donor atom, acceptor molecule, acceptor atom, score
      L1  H     7    18       P1  3187  1.00

> <Gold.PLP.Chemscore.Internal.Correction>
0.0000

