#       Name:                EN300-189362_i001
#       Creating user name   aseyller
#       Creation time:       Fri Apr 21 16:46:24 2023


#       File generated by GOLD software.
#

@<TRIPOS>MOLECULE
EN300-189362_i001|aminophenols|mol2|119|dock7
    18    18     1
SMALL
USER_CHARGES


@<TRIPOS>ATOM
      1 C1          25.8522  37.5202  38.3518 C.3            1 <1>                0.0000
      2 C2          26.8058  37.0328  39.4121 C.ar           1 <1>                0.0000
      3 C3          28.0790  36.6244  39.0600 C.ar           1 <1>                0.0000
      4 C4          28.9575  36.1756  40.0344 C.ar           1 <1>                0.0000
      5 N5          30.2480  35.7616  39.6791 N.pl3          1 <1>                0.0000
      6 C6          28.5547  36.1378  41.3676 C.ar           1 <1>                0.0000
      7 O7          29.4132  35.6988  42.3268 O.3            1 <1>                0.0000
      8 C8          27.2785  36.5485  41.7143 C.ar           1 <1>                0.0000
      9 C9          26.4072  37.0002  40.7371 C.ar           1 <1>                0.0000
     10 F10         25.1623  37.4006  41.0766 F              1 <1>                0.0000
     11 H11         25.2782  36.6784  37.9646 H              1 <1>                0.0000
     12 H12         25.1730  38.2550  38.7840 H              1 <1>                0.0000
     13 H13         26.4159  37.9798  37.5399 H              1 <1>                0.0000
     14 H14         28.3892  36.6545  38.0260 H              1 <1>                0.0000
     15 H15         26.9638  36.5198  42.7470 H              1 <1>                0.0000
     16 H16         30.5276  35.7886  38.7506 H              1 <1>                0.0000
     17 H17         30.8618  35.4478  40.3615 H              1 <1>                0.0000
     18 H18         30.2942  35.4781  41.9949 H              1 <1>                0.0000
@<TRIPOS>BOND
    1    1    2 1     
    2    1   11 1     
    3    1   12 1     
    4    1   13 1     
    5    2    3 ar    
    6    2    9 ar    
    7    3    4 ar    
    8    3   14 1     
    9    4    5 1     
   10    4    6 ar    
   11    5   16 1     
   12    5   17 1     
   13    6    7 1     
   14    6    8 ar    
   15    7   18 1     
   16    8    9 ar    
   17    8   15 1     
   18    9   10 1     
@<TRIPOS>SUBSTRUCTURE
      1 ****           1
@<TRIPOS>SET
DONOR_HYDROGENS      STATIC     ATOMS    <user>   **** ""
3 16 17 18
ATOM$RED        STATIC     ATOMS    COLORGROUP SYSTEM
3 16 17 18
@<TRIPOS>COMMENT
> <Gold.Version>
2022.2.0

> <Gold.Id.Protein>
1qkm|1qkm_protein|mol2

> <Gold.Protein.RotatedTorsions>
[  496  491  490  487 ] final  -33.79 input  -89.99 | X-H torsion

> <Gold.Protein.ActiveResidues>
 MET295  LEU298  THR299  LEU301  ALA302  GLU305  TRP335  MET336  LEU339  MET340 
 GLY342  LEU343  ARG346  PHE356  ILE373  ILE376  PHE377  LEU380  LYS471  GLY472 
 MET473  HIS475  LEU476  LEU477  ASN478  MET479  VAL484  VAL487 

> <Gold.Protein.RotatedAtoms>
   36.3316   34.6037   41.8577 H   0  0  0  0  0  0  0  0  0  0  0  0  # atno 496  bound_to 491 

> <Gold.Score>
     Score     S(PLP)   S(hbond)     S(cho)   S(metal)  DE(clash)   DE(tors)     intcor
     40.70     -34.70       2.00       0.00       0.00       0.00       0.00       0.00

> <Gold.PLP.Fitness>
40.7008

> <Gold.PLP.PLP>
-34.7008

> <Gold.PLP.part.hbond>
-2.7961

> <Gold.PLP.part.metal>
0.0000

> <Gold.PLP.part.buried>
0.7055

> <Gold.PLP.part.nonpolar>
-32.4632

> <Gold.PLP.part.repulsive>
0.0514

> <Gold.PLP.ligand.clash>
0.0000

> <Gold.PLP.ligand.torsion>
0.0000

> <Gold.PLP.Chemscore.Hbond>
2.0000

> <Gold.PLP.Chemscore.CHOScore>
0.0000

> <Gold.PLP.Chemscore.Metal>
0.0000

> <Gold.Chemscore.Hbonds>
donor molecule, donor type, donor heavy atom, donor atom, acceptor molecule, acceptor atom, score
      L1  H     5    17       P1   470  1.00
      L1  H     7    18       P1   470  1.00

> <Gold.PLP.Chemscore.Internal.Correction>
0.0000

