#       Name:                EN300-189362_i001
#       Creating user name   aseyller
#       Creation time:       Fri Apr 21 16:46:24 2023


#       File generated by GOLD software.
#

@<TRIPOS>MOLECULE
EN300-189362_i001|aminophenols|mol2|119|dock8
    18    18     1
SMALL
USER_CHARGES


@<TRIPOS>ATOM
      1 C1          26.9186  38.0096  37.3077 C.3            1 <1>                0.0000
      2 C2          27.4679  37.3385  38.5402 C.ar           1 <1>                0.0000
      3 C3          28.7783  36.8975  38.5599 C.ar           1 <1>                0.0000
      4 C4          29.2851  36.2798  39.6930 C.ar           1 <1>                0.0000
      5 N5          30.6127  35.8326  39.7144 N.pl3          1 <1>                0.0000
      6 C6          28.4717  36.1051  40.8107 C.ar           1 <1>                0.0000
      7 O7          28.9647  35.5001  41.9245 O.3            1 <1>                0.0000
      8 C8          27.1604  36.5490  40.7853 C.ar           1 <1>                0.0000
      9 C9          26.6613  37.1697  39.6521 C.ar           1 <1>                0.0000
     10 F10         25.3817  37.6024  39.6287 F              1 <1>                0.0000
     11 H11         26.4845  37.2585  36.6478 H              1 <1>                0.0000
     12 H12         26.1506  38.7272  37.5965 H              1 <1>                0.0000
     13 H13         27.7237  38.5287  36.7875 H              1 <1>                0.0000
     14 H14         29.4071  37.0340  37.6924 H              1 <1>                0.0000
     15 H15         26.5278  36.4145  41.6503 H              1 <1>                0.0000
     16 H16         31.1783  35.9551  38.9359 H              1 <1>                0.0000
     17 H17         30.9664  35.4005  40.5076 H              1 <1>                0.0000
     18 H18         29.9109  35.6434  42.0638 H              1 <1>                0.0000
@<TRIPOS>BOND
    1    1    2 1     
    2    1   11 1     
    3    1   12 1     
    4    1   13 1     
    5    2    3 ar    
    6    2    9 ar    
    7    3    4 ar    
    8    3   14 1     
    9    4    5 1     
   10    4    6 ar    
   11    5   16 1     
   12    5   17 1     
   13    6    7 1     
   14    6    8 ar    
   15    7   18 1     
   16    8    9 ar    
   17    8   15 1     
   18    9   10 1     
@<TRIPOS>SUBSTRUCTURE
      1 ****           1
@<TRIPOS>SET
DONOR_HYDROGENS      STATIC     ATOMS    <user>   **** ""
3 16 17 18
ATOM$RED        STATIC     ATOMS    COLORGROUP SYSTEM
3 16 17 18
@<TRIPOS>COMMENT
> <Gold.Version>
2022.2.0

> <Gold.Id.Protein>
1qkm|1qkm_protein|mol2

> <Gold.Protein.RotatedTorsions>
[  496  491  490  487 ] final   38.75 input  -89.99 | X-H torsion

> <Gold.Protein.ActiveResidues>
 MET295  LEU298  THR299  LEU301  ALA302  GLU305  TRP335  MET336  LEU339  MET340 
 GLY342  LEU343  ARG346  PHE356  ILE373  ILE376  PHE377  LEU380  LYS471  GLY472 
 MET473  HIS475  LEU476  LEU477  ASN478  MET479  VAL484  VAL487 

> <Gold.Protein.RotatedAtoms>
   36.3959   33.6203   42.3811 H   0  0  0  0  0  0  0  0  0  0  0  0  # atno 496  bound_to 491 

> <Gold.Score>
     Score     S(PLP)   S(hbond)     S(cho)   S(metal)  DE(clash)   DE(tors)     intcor
     37.46     -31.46       2.00       0.00       0.00       0.00       0.00       0.00

> <Gold.PLP.Fitness>
37.4636

> <Gold.PLP.PLP>
-31.4636

> <Gold.PLP.part.hbond>
-2.9046

> <Gold.PLP.part.metal>
0.0000

> <Gold.PLP.part.buried>
-1.9446

> <Gold.PLP.part.nonpolar>
-26.7332

> <Gold.PLP.part.repulsive>
0.0676

> <Gold.PLP.ligand.clash>
0.0000

> <Gold.PLP.ligand.torsion>
0.0000

> <Gold.PLP.Chemscore.Hbond>
2.0000

> <Gold.PLP.Chemscore.CHOScore>
0.0000

> <Gold.PLP.Chemscore.Metal>
0.0000

> <Gold.Chemscore.Hbonds>
donor molecule, donor type, donor heavy atom, donor atom, acceptor molecule, acceptor atom, score
      L1  H     5    17       P1   470  1.00
      L1  H     7    18       P1   470  1.00

> <Gold.PLP.Chemscore.Internal.Correction>
0.0000

