#       Name:                EN300-189362_i001
#       Creating user name   aseyller
#       Creation time:       Fri Apr 21 16:46:27 2023


#       File generated by GOLD software.
#

@<TRIPOS>MOLECULE
EN300-189362_i001|aminophenols|mol2|119|dock17
    18    18     1
SMALL
USER_CHARGES


@<TRIPOS>ATOM
      1 C1          25.4955  37.7916  39.0978 C.3            1 <1>                0.0000
      2 C2          26.8916  37.2486  39.2628 C.ar           1 <1>                0.0000
      3 C3          27.2563  36.6301  40.4445 C.ar           1 <1>                0.0000
      4 C4          28.5404  36.1300  40.5978 C.ar           1 <1>                0.0000
      5 N5          28.9113  35.5030  41.7945 N.pl3          1 <1>                0.0000
      6 C6          29.4611  36.2519  39.5591 C.ar           1 <1>                0.0000
      7 O7          30.7217  35.7625  39.7049 O.3            1 <1>                0.0000
      8 C8          29.0901  36.8719  38.3779 C.ar           1 <1>                0.0000
      9 C9          27.8044  37.3651  38.2290 C.ar           1 <1>                0.0000
     10 F10         27.4437  37.9699  37.0760 F              1 <1>                0.0000
     11 H11         25.4660  38.8271  39.4369 H              1 <1>                0.0000
     12 H12         25.2093  37.7449  38.0471 H              1 <1>                0.0000
     13 H13         24.8015  37.1953  39.6903 H              1 <1>                0.0000
     14 H14         26.5410  36.5367  41.2483 H              1 <1>                0.0000
     15 H15         29.8021  36.9678  37.5715 H              1 <1>                0.0000
     16 H16         28.2695  35.4183  42.5169 H              1 <1>                0.0000
     17 H17         29.8099  35.1535  41.9008 H              1 <1>                0.0000
     18 H18         30.9454  35.5160  40.6128 H              1 <1>                0.0000
@<TRIPOS>BOND
    1    1    2 1     
    2    1   11 1     
    3    1   12 1     
    4    1   13 1     
    5    2    3 ar    
    6    2    9 ar    
    7    3    4 ar    
    8    3   14 1     
    9    4    5 1     
   10    4    6 ar    
   11    5   16 1     
   12    5   17 1     
   13    6    7 1     
   14    6    8 ar    
   15    7   18 1     
   16    8    9 ar    
   17    8   15 1     
   18    9   10 1     
@<TRIPOS>SUBSTRUCTURE
      1 ****           1
@<TRIPOS>SET
DONOR_HYDROGENS      STATIC     ATOMS    <user>   **** ""
3 16 17 18
ATOM$RED        STATIC     ATOMS    COLORGROUP SYSTEM
3 16 17 18
@<TRIPOS>COMMENT
> <Gold.Version>
2022.2.0

> <Gold.Id.Protein>
1qkm|1qkm_protein|mol2

> <Gold.Protein.RotatedTorsions>
[  496  491  490  487 ] final -158.08 input  -89.99 | X-H torsion

> <Gold.Protein.ActiveResidues>
 MET295  LEU298  THR299  LEU301  ALA302  GLU305  TRP335  MET336  LEU339  MET340 
 GLY342  LEU343  ARG346  PHE356  ILE373  ILE376  PHE377  LEU380  LYS471  GLY472 
 MET473  HIS475  LEU476  LEU477  ASN478  MET479  VAL484  VAL487 

> <Gold.Protein.RotatedAtoms>
   37.2679   33.7934   40.7405 H   0  0  0  0  0  0  0  0  0  0  0  0  # atno 496  bound_to 491 

> <Gold.Score>
     Score     S(PLP)   S(hbond)     S(cho)   S(metal)  DE(clash)   DE(tors)     intcor
     35.14     -29.14       2.00       0.00       0.00       0.00       0.00       0.00

> <Gold.PLP.Fitness>
35.1356

> <Gold.PLP.PLP>
-29.1356

> <Gold.PLP.part.hbond>
-2.0000

> <Gold.PLP.part.metal>
0.0000

> <Gold.PLP.part.buried>
-1.2904

> <Gold.PLP.part.nonpolar>
-25.4558

> <Gold.PLP.part.repulsive>
0.0989

> <Gold.PLP.ligand.clash>
0.0000

> <Gold.PLP.ligand.torsion>
0.0000

> <Gold.PLP.Chemscore.Hbond>
2.0000

> <Gold.PLP.Chemscore.CHOScore>
0.0000

> <Gold.PLP.Chemscore.Metal>
0.0000

> <Gold.Chemscore.Hbonds>
donor molecule, donor type, donor heavy atom, donor atom, acceptor molecule, acceptor atom, score
      L1  H     5    17       P1   470  1.00
      L1  H     7    18       P1   470  1.00

> <Gold.PLP.Chemscore.Internal.Correction>
0.0000

