#       Name:                EN300-189362_i001
#       Creating user name   aseyller
#       Creation time:       Fri Apr 21 16:46:25 2023


#       File generated by GOLD software.
#

@<TRIPOS>MOLECULE
EN300-189362_i001|aminophenols|mol2|119|dock13
    18    18     1
SMALL
USER_CHARGES


@<TRIPOS>ATOM
      1 C1          31.6096  37.4909  35.1275 C.3            1 <1>                0.0000
      2 C2          31.1053  37.1688  36.5106 C.ar           1 <1>                0.0000
      3 C3          31.6773  36.1360  37.2305 C.ar           1 <1>                0.0000
      4 C4          31.2144  35.8384  38.5031 C.ar           1 <1>                0.0000
      5 N5          31.7930  34.7923  39.2338 N.pl3          1 <1>                0.0000
      6 C6          30.1729  36.5820  39.0542 C.ar           1 <1>                0.0000
      7 O7          29.7159  36.2939  40.3024 O.3            1 <1>                0.0000
      8 C8          29.6043  37.6153  38.3287 C.ar           1 <1>                0.0000
      9 C9          30.0743  37.9109  37.0599 C.ar           1 <1>                0.0000
     10 F10         29.5186  38.9194  36.3531 F              1 <1>                0.0000
     11 H11         31.0504  36.9117  34.3927 H              1 <1>                0.0000
     12 H12         31.4754  38.5545  34.9304 H              1 <1>                0.0000
     13 H13         32.6681  37.2395  35.0591 H              1 <1>                0.0000
     14 H14         32.4845  35.5609  36.8014 H              1 <1>                0.0000
     15 H15         28.7967  38.1930  38.7537 H              1 <1>                0.0000
     16 H16         32.5183  34.2755  38.8493 H              1 <1>                0.0000
     17 H17         31.4684  34.5848  40.1240 H              1 <1>                0.0000
     18 H18         30.3897  35.9323  40.8943 H              1 <1>                0.0000
@<TRIPOS>BOND
    1    1    2 1     
    2    1   11 1     
    3    1   12 1     
    4    1   13 1     
    5    2    3 ar    
    6    2    9 ar    
    7    3    4 ar    
    8    3   14 1     
    9    4    5 1     
   10    4    6 ar    
   11    5   16 1     
   12    5   17 1     
   13    6    7 1     
   14    6    8 ar    
   15    7   18 1     
   16    8    9 ar    
   17    8   15 1     
   18    9   10 1     
@<TRIPOS>SUBSTRUCTURE
      1 ****           1
@<TRIPOS>SET
DONOR_HYDROGENS      STATIC     ATOMS    <user>   **** ""
3 16 17 18
ATOM$RED        STATIC     ATOMS    COLORGROUP SYSTEM
3 16 17 18
@<TRIPOS>COMMENT
> <Gold.Version>
2022.2.0

> <Gold.Id.Protein>
1qkm|1qkm_protein|mol2

> <Gold.Protein.RotatedTorsions>
[  496  491  490  487 ] final    0.86 input  -89.99 | X-H torsion

> <Gold.Protein.ActiveResidues>
 MET295  LEU298  THR299  LEU301  ALA302  GLU305  TRP335  MET336  LEU339  MET340 
 GLY342  LEU343  ARG346  PHE356  ILE373  ILE376  PHE377  LEU380  LYS471  GLY472 
 MET473  HIS475  LEU476  LEU477  ASN478  MET479  VAL484  VAL487 

> <Gold.Protein.RotatedAtoms>
   36.2603   34.2013   42.2431 H   0  0  0  0  0  0  0  0  0  0  0  0  # atno 496  bound_to 491 

> <Gold.Score>
     Score     S(PLP)   S(hbond)     S(cho)   S(metal)  DE(clash)   DE(tors)     intcor
     34.95     -29.61       1.78       0.00       0.00       0.00       0.00       0.00

> <Gold.PLP.Fitness>
34.9453

> <Gold.PLP.PLP>
-29.6139

> <Gold.PLP.part.hbond>
-2.0000

> <Gold.PLP.part.metal>
0.0000

> <Gold.PLP.part.buried>
-1.2303

> <Gold.PLP.part.nonpolar>
-26.0577

> <Gold.PLP.part.repulsive>
0.0944

> <Gold.PLP.ligand.clash>
0.0000

> <Gold.PLP.ligand.torsion>
0.0000

> <Gold.PLP.Chemscore.Hbond>
1.7771

> <Gold.PLP.Chemscore.CHOScore>
0.0000

> <Gold.PLP.Chemscore.Metal>
0.0000

> <Gold.Chemscore.Hbonds>
donor molecule, donor type, donor heavy atom, donor atom, acceptor molecule, acceptor atom, score
      L1  H     5    17       P1   470  0.78
      L1  H     7    18       P1   470  1.00

> <Gold.PLP.Chemscore.Internal.Correction>
0.0000

