#       Name:                EN300-189362_i001
#       Creating user name   aseyller
#       Creation time:       Fri Apr 21 16:46:26 2023


#       File generated by GOLD software.
#

@<TRIPOS>MOLECULE
EN300-189362_i001|aminophenols|mol2|119|dock14
    18    18     1
SMALL
USER_CHARGES


@<TRIPOS>ATOM
      1 C1          30.0671  39.0549  36.2355 C.3            1 <1>                0.0000
      2 C2          30.5255  37.8537  37.0217 C.ar           1 <1>                0.0000
      3 C3          30.0298  37.6310  38.2932 C.ar           1 <1>                0.0000
      4 C4          30.4505  36.5263  39.0178 C.ar           1 <1>                0.0000
      5 N5          29.9490  36.2993  40.3062 N.pl3          1 <1>                0.0000
      6 C6          31.3727  35.6420  38.4620 C.ar           1 <1>                0.0000
      7 O7          31.7880  34.5569  39.1689 O.3            1 <1>                0.0000
      8 C8          31.8654  35.8700  37.1881 C.ar           1 <1>                0.0000
      9 C9          31.4376  36.9726  36.4674 C.ar           1 <1>                0.0000
     10 F10         31.9190  37.1940  35.2246 F              1 <1>                0.0000
     11 H11         30.7260  39.8980  36.4430 H              1 <1>                0.0000
     12 H12         30.0959  38.8246  35.1705 H              1 <1>                0.0000
     13 H13         29.0476  39.3107  36.5245 H              1 <1>                0.0000
     14 H14         29.3149  38.3176  38.7221 H              1 <1>                0.0000
     15 H15         32.5805  35.1862  36.7553 H              1 <1>                0.0000
     16 H16         29.3067  36.9153  40.6921 H              1 <1>                0.0000
     17 H17         30.2441  35.5262  40.8123 H              1 <1>                0.0000
     18 H18         31.5576  34.5872  40.1076 H              1 <1>                0.0000
@<TRIPOS>BOND
    1    1    2 1     
    2    1   11 1     
    3    1   12 1     
    4    1   13 1     
    5    2    3 ar    
    6    2    9 ar    
    7    3    4 ar    
    8    3   14 1     
    9    4    5 1     
   10    4    6 ar    
   11    5   16 1     
   12    5   17 1     
   13    6    7 1     
   14    6    8 ar    
   15    7   18 1     
   16    8    9 ar    
   17    8   15 1     
   18    9   10 1     
@<TRIPOS>SUBSTRUCTURE
      1 ****           1
@<TRIPOS>SET
DONOR_HYDROGENS      STATIC     ATOMS    <user>   **** ""
3 16 17 18
ATOM$RED        STATIC     ATOMS    COLORGROUP SYSTEM
3 16 17 18
@<TRIPOS>COMMENT
> <Gold.Version>
2022.2.0

> <Gold.Id.Protein>
1qkm|1qkm_protein|mol2

> <Gold.Protein.RotatedTorsions>
[  496  491  490  487 ] final  -84.73 input  -89.99 | X-H torsion

> <Gold.Protein.ActiveResidues>
 MET295  LEU298  THR299  LEU301  ALA302  GLU305  TRP335  MET336  LEU339  MET340 
 GLY342  LEU343  ARG346  PHE356  ILE373  ILE376  PHE377  LEU380  LYS471  GLY472 
 MET473  HIS475  LEU476  LEU477  ASN478  MET479  VAL484  VAL487 

> <Gold.Protein.RotatedAtoms>
   36.7089   34.6844   41.1441 H   0  0  0  0  0  0  0  0  0  0  0  0  # atno 496  bound_to 491 

> <Gold.Score>
     Score     S(PLP)   S(hbond)     S(cho)   S(metal)  DE(clash)   DE(tors)     intcor
     34.73     -29.80       1.64       0.00       0.00       0.00       0.00       0.00

> <Gold.PLP.Fitness>
34.7297

> <Gold.PLP.PLP>
-29.7997

> <Gold.PLP.part.hbond>
-2.0000

> <Gold.PLP.part.metal>
0.0000

> <Gold.PLP.part.buried>
-1.8304

> <Gold.PLP.part.nonpolar>
-25.9889

> <Gold.PLP.part.repulsive>
0.0518

> <Gold.PLP.ligand.clash>
0.0000

> <Gold.PLP.ligand.torsion>
0.0000

> <Gold.PLP.Chemscore.Hbond>
1.6433

> <Gold.PLP.Chemscore.CHOScore>
0.0000

> <Gold.PLP.Chemscore.Metal>
0.0000

> <Gold.Chemscore.Hbonds>
donor molecule, donor type, donor heavy atom, donor atom, acceptor molecule, acceptor atom, score
      L1  H     5    17       P1   470  0.65
      L1  H     7    18       P1   470  0.99

> <Gold.PLP.Chemscore.Internal.Correction>
0.0000

