#       Name:                EN300-189362_i001
#       Creating user name   aseyller
#       Creation time:       Fri Apr 21 16:46:22 2023


#       File generated by GOLD software.
#

@<TRIPOS>MOLECULE
EN300-189362_i001
    18    18     1
SMALL
USER_CHARGES


@<TRIPOS>ATOM
      1 C1           2.4782   1.1122   0.0303 C.3            1 <1>                0.0000
      2 C2           1.1841   0.3400   0.0420 C.ar           1 <1>                0.0000
      3 C3          -0.0225   1.0154   0.0423 C.ar           1 <1>                0.0000
      4 C4          -1.2140   0.3064   0.0531 C.ar           1 <1>                0.0000
      5 N5          -2.4373   0.9894   0.0533 N.pl3          1 <1>                0.0000
      6 C6          -1.1924  -1.0867   0.0632 C.ar           1 <1>                0.0000
      7 O7          -2.3587  -1.7863   0.0734 O.3            1 <1>                0.0000
      8 C8           0.0189  -1.7576   0.0625 C.ar           1 <1>                0.0000
      9 C9           1.2057  -1.0438   0.0468 C.ar           1 <1>                0.0000
     10 F10          2.3869  -1.6996   0.0461 F              1 <1>                0.0000
     11 H11          2.7948   1.3063   1.0551 H              1 <1>                0.0000
     12 H12          3.2439   0.5302  -0.4826 H              1 <1>                0.0000
     13 H13          2.3317   2.0587  -0.4902 H              1 <1>                0.0000
     14 H14         -0.0369   2.0953   0.0344 H              1 <1>                0.0000
     15 H15          0.0382  -2.8374   0.0706 H              1 <1>                0.0000
     16 H16         -2.4512   1.9593   0.0459 H              1 <1>                0.0000
     17 H17         -3.2703   0.4925   0.0609 H              1 <1>                0.0000
     18 H18         -2.6999  -1.9950  -0.8070 H              1 <1>                0.0000
@<TRIPOS>BOND
    1    1    2 1     
    2    1   11 1     
    3    1   12 1     
    4    1   13 1     
    5    2    3 ar    
    6    2    9 ar    
    7    3    4 ar    
    8    3   14 1     
    9    4    5 1     
   10    4    6 ar    
   11    5   16 1     
   12    5   17 1     
   13    6    7 1     
   14    6    8 ar    
   15    7   18 1     
   16    8    9 ar    
   17    8   15 1     
   18    9   10 1     
@<TRIPOS>SUBSTRUCTURE
      1 ****           1
@<TRIPOS>SET
DONOR_HYDROGENS      STATIC     ATOMS    <user>   **** ""
3 16 17 18
ATOM$RED        STATIC     ATOMS    COLORGROUP SYSTEM
3 16 17 18
