#       Name:                EN300-189362_i001
#       Creating user name   aseyller
#       Creation time:       Fri Apr 21 16:46:27 2023


#       File generated by GOLD software.
#

@<TRIPOS>MOLECULE
EN300-189362_i001|aminophenols|mol2|119|dock18
    18    18     1
SMALL
USER_CHARGES


@<TRIPOS>ATOM
      1 C1          33.0336  36.7601  34.9014 C.3            1 <1>                0.0000
      2 C2          32.3154  36.4253  36.1834 C.ar           1 <1>                0.0000
      3 C3          32.4359  35.1618  36.7321 C.ar           1 <1>                0.0000
      4 C4          31.7758  34.8522  37.9115 C.ar           1 <1>                0.0000
      5 N5          31.8971  33.5725  38.4687 N.pl3          1 <1>                0.0000
      6 C6          30.9920  35.8165  38.5417 C.ar           1 <1>                0.0000
      7 O7          30.3431  35.5174  39.6989 O.3            1 <1>                0.0000
      8 C8          30.8754  37.0802  37.9877 C.ar           1 <1>                0.0000
      9 C9          31.5411  37.3848  36.8120 C.ar           1 <1>                0.0000
     10 F10         31.4265  38.6182  36.2725 F              1 <1>                0.0000
     11 H11         32.3896  36.5285  34.0530 H              1 <1>                0.0000
     12 H12         33.2816  37.8214  34.8905 H              1 <1>                0.0000
     13 H13         33.9491  36.1723  34.8338 H              1 <1>                0.0000
     14 H14         33.0440  34.4159  36.2420 H              1 <1>                0.0000
     15 H15         30.2682  37.8292  38.4742 H              1 <1>                0.0000
     16 H16         32.4433  32.9020  38.0293 H              1 <1>                0.0000
     17 H17         31.4348  33.3569  39.2938 H              1 <1>                0.0000
     18 H18         30.9115  35.5219  40.4812 H              1 <1>                0.0000
@<TRIPOS>BOND
    1    1    2 1     
    2    1   11 1     
    3    1   12 1     
    4    1   13 1     
    5    2    3 ar    
    6    2    9 ar    
    7    3    4 ar    
    8    3   14 1     
    9    4    5 1     
   10    4    6 ar    
   11    5   16 1     
   12    5   17 1     
   13    6    7 1     
   14    6    8 ar    
   15    7   18 1     
   16    8    9 ar    
   17    8   15 1     
   18    9   10 1     
@<TRIPOS>SUBSTRUCTURE
      1 ****           1
@<TRIPOS>SET
DONOR_HYDROGENS      STATIC     ATOMS    <user>   **** ""
3 16 17 18
ATOM$RED        STATIC     ATOMS    COLORGROUP SYSTEM
3 16 17 18
@<TRIPOS>COMMENT
> <Gold.Version>
2022.2.0

> <Gold.Id.Protein>
1qkm|1qkm_protein|mol2

> <Gold.Protein.RotatedTorsions>
[  496  491  490  487 ] final -153.51 input  -89.99 | X-H torsion

> <Gold.Protein.ActiveResidues>
 MET295  LEU298  THR299  LEU301  ALA302  GLU305  TRP335  MET336  LEU339  MET340 
 GLY342  LEU343  ARG346  PHE356  ILE373  ILE376  PHE377  LEU380  LYS471  GLY472 
 MET473  HIS475  LEU476  LEU477  ASN478  MET479  VAL484  VAL487 

> <Gold.Protein.RotatedAtoms>
   37.2483   33.8650   40.7285 H   0  0  0  0  0  0  0  0  0  0  0  0  # atno 496  bound_to 491 

> <Gold.Score>
     Score     S(PLP)   S(hbond)     S(cho)   S(metal)  DE(clash)   DE(tors)     intcor
     35.27     -32.27       1.00       0.00       0.00       0.00       0.00       0.00

> <Gold.PLP.Fitness>
35.2740

> <Gold.PLP.PLP>
-32.2740

> <Gold.PLP.part.hbond>
-1.0000

> <Gold.PLP.part.metal>
0.0000

> <Gold.PLP.part.buried>
-3.4217

> <Gold.PLP.part.nonpolar>
-28.2011

> <Gold.PLP.part.repulsive>
0.0410

> <Gold.PLP.ligand.clash>
0.0000

> <Gold.PLP.ligand.torsion>
0.0000

> <Gold.PLP.Chemscore.Hbond>
1.0000

> <Gold.PLP.Chemscore.CHOScore>
0.0000

> <Gold.PLP.Chemscore.Metal>
0.0000

> <Gold.Chemscore.Hbonds>
donor molecule, donor type, donor heavy atom, donor atom, acceptor molecule, acceptor atom, score
      L1  H     7    18       P1   470  1.00

> <Gold.PLP.Chemscore.Internal.Correction>
0.0000

