#       Name:                EN300-189362_i001
#       Creating user name   aseyller
#       Creation time:       Fri Apr 21 16:46:22 2023


#       File generated by GOLD software.
#

@<TRIPOS>MOLECULE
EN300-189362_i001|aminophenols|mol2|119|dock2
    18    18     1
SMALL
USER_CHARGES


@<TRIPOS>ATOM
      1 C1          28.7252  37.2559  37.6487 C.3            1 <1>                0.0000
      2 C2          27.7711  37.0077  38.7885 C.ar           1 <1>                0.0000
      3 C3          28.1624  36.2228  39.8575 C.ar           1 <1>                0.0000
      4 C4          27.2858  35.9935  40.9069 C.ar           1 <1>                0.0000
      5 N5          27.6810  35.1985  41.9908 N.pl3          1 <1>                0.0000
      6 C6          26.0112  36.5556  40.8818 C.ar           1 <1>                0.0000
      7 O7          25.1480  36.3337  41.9092 O.3            1 <1>                0.0000
      8 C8          25.6249  37.3410  39.8088 C.ar           1 <1>                0.0000
      9 C9          26.5069  37.5704  38.7658 C.ar           1 <1>                0.0000
     10 F10         26.1288  38.3369  37.7194 F              1 <1>                0.0000
     11 H11         28.5972  36.4814  36.8924 H              1 <1>                0.0000
     12 H12         28.5191  38.2315  37.2083 H              1 <1>                0.0000
     13 H13         29.7494  37.2344  38.0211 H              1 <1>                0.0000
     14 H14         29.1510  35.7881  39.8750 H              1 <1>                0.0000
     15 H15         24.6374  37.7776  39.7869 H              1 <1>                0.0000
     16 H16         28.5688  34.8080  42.0075 H              1 <1>                0.0000
     17 H17         27.0670  35.0386  42.7245 H              1 <1>                0.0000
     18 H18         25.4269  35.6312  42.5124 H              1 <1>                0.0000
@<TRIPOS>BOND
    1    1    2 1     
    2    1   11 1     
    3    1   12 1     
    4    1   13 1     
    5    2    3 ar    
    6    2    9 ar    
    7    3    4 ar    
    8    3   14 1     
    9    4    5 1     
   10    4    6 ar    
   11    5   16 1     
   12    5   17 1     
   13    6    7 1     
   14    6    8 ar    
   15    7   18 1     
   16    8    9 ar    
   17    8   15 1     
   18    9   10 1     
@<TRIPOS>SUBSTRUCTURE
      1 ****           1
@<TRIPOS>SET
DONOR_HYDROGENS      STATIC     ATOMS    <user>   **** ""
3 16 17 18
ATOM$RED        STATIC     ATOMS    COLORGROUP SYSTEM
3 16 17 18
@<TRIPOS>COMMENT
> <Gold.Version>
2022.2.0

> <Gold.Id.Protein>
1qkm|1qkm_protein|mol2

> <Gold.Protein.RotatedTorsions>
[  496  491  490  487 ] final  -38.95 input  -89.99 | X-H torsion

> <Gold.Protein.ActiveResidues>
 MET295  LEU298  THR299  LEU301  ALA302  GLU305  TRP335  MET336  LEU339  MET340 
 GLY342  LEU343  ARG346  PHE356  ILE373  ILE376  PHE377  LEU380  LYS471  GLY472 
 MET473  HIS475  LEU476  LEU477  ASN478  MET479  VAL484  VAL487 

> <Gold.Protein.RotatedAtoms>
   36.3575   34.6428   41.7870 H   0  0  0  0  0  0  0  0  0  0  0  0  # atno 496  bound_to 491 

> <Gold.Score>
     Score     S(PLP)   S(hbond)     S(cho)   S(metal)  DE(clash)   DE(tors)     intcor
     43.56     -35.86       2.56       0.00       0.00       0.00       0.00       0.00

> <Gold.PLP.Fitness>
43.5576

> <Gold.PLP.PLP>
-35.8632

> <Gold.PLP.part.hbond>
-2.8492

> <Gold.PLP.part.metal>
0.0000

> <Gold.PLP.part.buried>
-4.5500

> <Gold.PLP.part.nonpolar>
-28.7451

> <Gold.PLP.part.repulsive>
0.0771

> <Gold.PLP.ligand.clash>
0.0000

> <Gold.PLP.ligand.torsion>
0.0000

> <Gold.PLP.Chemscore.Hbond>
2.5648

> <Gold.PLP.Chemscore.CHOScore>
0.0000

> <Gold.PLP.Chemscore.Metal>
0.0000

> <Gold.Chemscore.Hbonds>
donor molecule, donor type, donor heavy atom, donor atom, acceptor molecule, acceptor atom, score
      L1  H     5    17       P1   582  0.99
      L1  H     7    18       P1   582  1.00
      P1  H  1258  1270       L1     7  0.57

> <Gold.PLP.Chemscore.Internal.Correction>
0.0000

