#       Name:                EN300-135851_i001
#       Creating user name   aseyller
#       Creation time:       Fri Apr 21 16:29:49 2023


#       File generated by GOLD software.
#

@<TRIPOS>MOLECULE
EN300-135851_i001|aminophenols|mol2|33|dock16
    24    24     1
SMALL
USER_CHARGES


@<TRIPOS>ATOM
      1 C1          25.8042  37.1971  39.2959 C.3            1 <1>                0.0000
      2 O2          27.1622  37.2223  38.7829 O.3            1 <1>                0.0000
      3 C3          28.0209  36.3101  39.2796 C.2            1 <1>                0.0000
      4 O4          27.6579  35.5460  40.1519 O.2            1 <1>                0.0000
      5 C5          29.4004  36.2396  38.7650 C.ar           1 <1>                0.0000
      6 C6          30.2210  35.1571  39.0995 C.ar           1 <1>                0.0000
      7 C7          31.5095  35.0940  38.6172 C.ar           1 <1>                0.0000
      8 C8          32.0013  36.0986  37.7996 C.ar           1 <1>                0.0000
      9 C9          33.4130  36.0174  37.2786 C.3            1 <1>                0.0000
     10 C10         31.2014  37.1775  37.4583 C.ar           1 <1>                0.0000
     11 N11         31.7048  38.1887  36.6316 N.pl3          1 <1>                0.0000
     12 C12         29.8939  37.2526  37.9344 C.ar           1 <1>                0.0000
     13 O13         29.1064  38.3074  37.6028 O.3            1 <1>                0.0000
     14 H14         25.2192  37.9804  38.8141 H              1 <1>                0.0000
     15 H15         25.3544  36.2267  39.0860 H              1 <1>                0.0000
     16 H16         25.8193  37.3652  40.3727 H              1 <1>                0.0000
     17 H17         29.8441  34.3707  39.7366 H              1 <1>                0.0000
     18 H18         32.1401  34.2569  38.8779 H              1 <1>                0.0000
     19 H19         33.4187  35.4884  36.3256 H              1 <1>                0.0000
     20 H20         33.8068  37.0240  37.1377 H              1 <1>                0.0000
     21 H21         34.0346  35.4811  37.9955 H              1 <1>                0.0000
     22 H22         32.6138  38.1344  36.2974 H              1 <1>                0.0000
     23 H23         31.1446  38.9437  36.3927 H              1 <1>                0.0000
     24 H24         28.8247  38.3125  36.6779 H              1 <1>                0.0000
@<TRIPOS>BOND
    1    1    2 1     
    2    1   14 1     
    3    1   15 1     
    4    1   16 1     
    5    2    3 1     
    6    3    4 2     
    7    3    5 1     
    8    5    6 ar    
    9    5   12 ar    
   10    6    7 ar    
   11    6   17 1     
   12    7    8 ar    
   13    7   18 1     
   14    8    9 1     
   15    8   10 ar    
   16    9   19 1     
   17    9   20 1     
   18    9   21 1     
   19   10   11 1     
   20   10   12 ar    
   21   11   22 1     
   22   11   23 1     
   23   12   13 1     
   24   13   24 1     
@<TRIPOS>SUBSTRUCTURE
      1 ****           1
@<TRIPOS>SET
DONOR_HYDROGENS      STATIC     ATOMS    <user>   **** ""
3 22 23 24
ATOM$RED        STATIC     ATOMS    COLORGROUP SYSTEM
3 22 23 24
@<TRIPOS>COMMENT
> <Gold.Version>
2022.2.0

> <Gold.Id.Protein>
1qkm|1qkm_protein|mol2

> <Gold.Protein.RotatedTorsions>
[  496  491  490  487 ] final  -70.84 input  -89.99 | X-H torsion

> <Gold.Protein.ActiveResidues>
 MET295  LEU298  THR299  LEU301  ALA302  GLU305  TRP335  MET336  LEU339  MET340 
 GLY342  LEU343  ARG346  PHE356  ILE373  ILE376  PHE377  LEU380  LYS471  GLY472 
 MET473  HIS475  LEU476  LEU477  ASN478  MET479  VAL484  VAL487 

> <Gold.Protein.RotatedAtoms>
   36.5854   34.7315   41.3300 H   0  0  0  0  0  0  0  0  0  0  0  0  # atno 496  bound_to 491 

> <Gold.Score>
     Score     S(PLP)   S(hbond)     S(cho)   S(metal)  DE(clash)   DE(tors)     intcor
     37.33     -37.45       0.00       0.00       0.00       0.00       0.06       0.00

> <Gold.PLP.Fitness>
37.3285

> <Gold.PLP.PLP>
-37.4537

> <Gold.PLP.part.hbond>
0.0000

> <Gold.PLP.part.metal>
0.0000

> <Gold.PLP.part.buried>
-4.2457

> <Gold.PLP.part.nonpolar>
-33.8780

> <Gold.PLP.part.repulsive>
0.0670

> <Gold.PLP.ligand.clash>
0.0000

> <Gold.PLP.ligand.torsion>
0.0626

> <Gold.PLP.Chemscore.Hbond>
0.0000

> <Gold.PLP.Chemscore.CHOScore>
0.0000

> <Gold.PLP.Chemscore.Metal>
0.0000

> <Gold.PLP.Chemscore.Internal.Correction>
0.0001

