#       Name:                EN300-135851_i001
#       Creating user name   aseyller
#       Creation time:       Fri Apr 21 16:29:43 2023


#       File generated by GOLD software.
#

@<TRIPOS>MOLECULE
EN300-135851_i001|aminophenols|mol2|33|dock8
    24    24     1
SMALL
USER_CHARGES


@<TRIPOS>ATOM
      1 C1          33.0581  36.0907  37.3305 C.3            1 <1>                0.0000
      2 O2          31.7601  36.6412  37.6777 O.3            1 <1>                0.0000
      3 C3          30.9947  35.9190  38.5194 C.2            1 <1>                0.0000
      4 O4          31.4639  34.9556  39.0922 O.2            1 <1>                0.0000
      5 C5          29.5880  36.2976  38.7450 C.ar           1 <1>                0.0000
      6 C6          28.9076  37.0707  37.7981 C.ar           1 <1>                0.0000
      7 C7          27.5934  37.4229  38.0117 C.ar           1 <1>                0.0000
      8 C8          26.9372  37.0158  39.1620 C.ar           1 <1>                0.0000
      9 C9          25.4991  37.4081  39.3835 C.3            1 <1>                0.0000
     10 C10         27.5966  36.2493  40.1097 C.ar           1 <1>                0.0000
     11 N11         26.9272  35.8413  41.2694 N.pl3          1 <1>                0.0000
     12 C12         28.9248  35.8807  39.9051 C.ar           1 <1>                0.0000
     13 O13         29.5750  35.1299  40.8305 O.3            1 <1>                0.0000
     14 H14         33.5700  36.7696  36.6485 H              1 <1>                0.0000
     15 H15         33.6538  35.9666  38.2347 H              1 <1>                0.0000
     16 H16         32.9248  35.1227  36.8475 H              1 <1>                0.0000
     17 H17         29.4131  37.3917  36.8994 H              1 <1>                0.0000
     18 H18         27.0715  38.0200  37.2786 H              1 <1>                0.0000
     19 H19         24.8452  36.6466  38.9587 H              1 <1>                0.0000
     20 H20         25.3072  37.4965  40.4528 H              1 <1>                0.0000
     21 H21         25.3049  38.3651  38.8991 H              1 <1>                0.0000
     22 H22         26.0017  36.0950  41.4099 H              1 <1>                0.0000
     23 H23         27.3890  35.3047  41.9326 H              1 <1>                0.0000
     24 H24         30.3841  35.5370  41.1690 H              1 <1>                0.0000
@<TRIPOS>BOND
    1    1    2 1     
    2    1   14 1     
    3    1   15 1     
    4    1   16 1     
    5    2    3 1     
    6    3    4 2     
    7    3    5 1     
    8    5    6 ar    
    9    5   12 ar    
   10    6    7 ar    
   11    6   17 1     
   12    7    8 ar    
   13    7   18 1     
   14    8    9 1     
   15    8   10 ar    
   16    9   19 1     
   17    9   20 1     
   18    9   21 1     
   19   10   11 1     
   20   10   12 ar    
   21   11   22 1     
   22   11   23 1     
   23   12   13 1     
   24   13   24 1     
@<TRIPOS>SUBSTRUCTURE
      1 ****           1
@<TRIPOS>SET
DONOR_HYDROGENS      STATIC     ATOMS    <user>   **** ""
3 22 23 24
ATOM$RED        STATIC     ATOMS    COLORGROUP SYSTEM
3 22 23 24
@<TRIPOS>COMMENT
> <Gold.Version>
2022.2.0

> <Gold.Id.Protein>
1qkm|1qkm_protein|mol2

> <Gold.Protein.RotatedTorsions>
[  496  491  490  487 ] final -161.36 input  -89.99 | X-H torsion

> <Gold.Protein.ActiveResidues>
 MET295  LEU298  THR299  LEU301  ALA302  GLU305  TRP335  MET336  LEU339  MET340 
 GLY342  LEU343  ARG346  PHE356  ILE373  ILE376  PHE377  LEU380  LYS471  GLY472 
 MET473  HIS475  LEU476  LEU477  ASN478  MET479  VAL484  VAL487 

> <Gold.Protein.RotatedAtoms>
   37.2801   33.7421   40.7523 H   0  0  0  0  0  0  0  0  0  0  0  0  # atno 496  bound_to 491 

> <Gold.Score>
     Score     S(PLP)   S(hbond)     S(cho)   S(metal)  DE(clash)   DE(tors)     intcor
     39.70     -37.75       0.85       0.00       0.00       0.00       0.30       0.00

> <Gold.PLP.Fitness>
39.7017

> <Gold.PLP.PLP>
-37.7460

> <Gold.PLP.part.hbond>
-2.0000

> <Gold.PLP.part.metal>
0.0000

> <Gold.PLP.part.buried>
-2.5631

> <Gold.PLP.part.nonpolar>
-34.6522

> <Gold.PLP.part.repulsive>
0.9981

> <Gold.PLP.ligand.clash>
0.0000

> <Gold.PLP.ligand.torsion>
0.3035

> <Gold.PLP.Chemscore.Hbond>
0.8542

> <Gold.PLP.Chemscore.CHOScore>
0.0000

> <Gold.PLP.Chemscore.Metal>
0.0000

> <Gold.Chemscore.Hbonds>
donor molecule, donor type, donor heavy atom, donor atom, acceptor molecule, acceptor atom, score
      L1  H    11    23       P1   582  0.04
      L1  H    13    24       P1   470  0.82

> <Gold.PLP.Chemscore.Internal.Correction>
0.0001

