#       Name:                EN300-135851_i001
#       Creating user name   aseyller
#       Creation time:       Fri Apr 21 16:29:52 2023


#       File generated by GOLD software.
#

@<TRIPOS>MOLECULE
EN300-135851_i001|aminophenols|mol2|33|dock20
    24    24     1
SMALL
USER_CHARGES


@<TRIPOS>ATOM
      1 C1          30.8178  37.0741  35.9317 C.3            1 <1>                0.0000
      2 O2          30.1491  36.7490  37.1789 O.3            1 <1>                0.0000
      3 C3          29.0290  37.4391  37.4703 C.2            1 <1>                0.0000
      4 O4          28.6164  38.2818  36.6983 O.2            1 <1>                0.0000
      5 C5          28.3043  37.1717  38.7259 C.ar           1 <1>                0.0000
      6 C6          26.9429  37.4764  38.8304 C.ar           1 <1>                0.0000
      7 C7          26.2686  37.2254  40.0047 C.ar           1 <1>                0.0000
      8 C8          26.9309  36.6712  41.0880 C.ar           1 <1>                0.0000
      9 C9          26.1813  36.4016  42.3673 C.3            1 <1>                0.0000
     10 C10         28.2792  36.3630  41.0009 C.ar           1 <1>                0.0000
     11 N11         28.9419  35.8028  42.0994 N.pl3          1 <1>                0.0000
     12 C12         28.9737  36.6063  39.8176 C.ar           1 <1>                0.0000
     13 O13         30.2944  36.3061  39.7274 O.3            1 <1>                0.0000
     14 H14         31.7027  36.4475  35.8198 H              1 <1>                0.0000
     15 H15         30.1386  36.8957  35.0981 H              1 <1>                0.0000
     16 H16         31.1141  38.1229  35.9409 H              1 <1>                0.0000
     17 H17         26.4205  37.9090  37.9899 H              1 <1>                0.0000
     18 H18         25.2177  37.4623  40.0817 H              1 <1>                0.0000
     19 H19         25.7639  35.3951  42.3386 H              1 <1>                0.0000
     20 H20         26.8632  36.4882  43.2131 H              1 <1>                0.0000
     21 H21         25.3745  37.1265  42.4752 H              1 <1>                0.0000
     22 H22         28.4574  35.6302  42.9217 H              1 <1>                0.0000
     23 H23         29.8856  35.5870  42.0381 H              1 <1>                0.0000
     24 H24         30.6530  35.8693  40.5120 H              1 <1>                0.0000
@<TRIPOS>BOND
    1    1    2 1     
    2    1   14 1     
    3    1   15 1     
    4    1   16 1     
    5    2    3 1     
    6    3    4 2     
    7    3    5 1     
    8    5    6 ar    
    9    5   12 ar    
   10    6    7 ar    
   11    6   17 1     
   12    7    8 ar    
   13    7   18 1     
   14    8    9 1     
   15    8   10 ar    
   16    9   19 1     
   17    9   20 1     
   18    9   21 1     
   19   10   11 1     
   20   10   12 ar    
   21   11   22 1     
   22   11   23 1     
   23   12   13 1     
   24   13   24 1     
@<TRIPOS>SUBSTRUCTURE
      1 ****           1
@<TRIPOS>SET
DONOR_HYDROGENS      STATIC     ATOMS    <user>   **** ""
3 22 23 24
ATOM$RED        STATIC     ATOMS    COLORGROUP SYSTEM
3 22 23 24
@<TRIPOS>COMMENT
> <Gold.Version>
2022.2.0

> <Gold.Id.Protein>
1qkm|1qkm_protein|mol2

> <Gold.Protein.RotatedTorsions>
[  496  491  490  487 ] final  135.34 input  -89.99 | X-H torsion

> <Gold.Protein.ActiveResidues>
 MET295  LEU298  THR299  LEU301  ALA302  GLU305  TRP335  MET336  LEU339  MET340 
 GLY342  LEU343  ARG346  PHE356  ILE373  ILE376  PHE377  LEU380  LYS471  GLY472 
 MET473  HIS475  LEU476  LEU477  ASN478  MET479  VAL484  VAL487 

> <Gold.Protein.RotatedAtoms>
   37.1872   32.9969   41.3971 H   0  0  0  0  0  0  0  0  0  0  0  0  # atno 496  bound_to 491 

> <Gold.Score>
     Score     S(PLP)   S(hbond)     S(cho)   S(metal)  DE(clash)   DE(tors)     intcor
     37.48     -32.38       1.86       0.00       0.00       0.00       0.24       0.00

> <Gold.PLP.Fitness>
37.4804

> <Gold.PLP.PLP>
-32.3805

> <Gold.PLP.part.hbond>
-1.9734

> <Gold.PLP.part.metal>
0.0000

> <Gold.PLP.part.buried>
2.4112

> <Gold.PLP.part.nonpolar>
-32.5458

> <Gold.PLP.part.repulsive>
0.0973

> <Gold.PLP.ligand.clash>
0.0000

> <Gold.PLP.ligand.torsion>
0.2420

> <Gold.PLP.Chemscore.Hbond>
1.8613

> <Gold.PLP.Chemscore.CHOScore>
0.0000

> <Gold.PLP.Chemscore.Metal>
0.0000

> <Gold.Chemscore.Hbonds>
donor molecule, donor type, donor heavy atom, donor atom, acceptor molecule, acceptor atom, score
      L1  H    11    23       P1   470  1.00
      L1  H    13    24       P1   470  0.86

> <Gold.PLP.Chemscore.Internal.Correction>
0.0001

