#       Name:                EN300-135851_i001
#       Creating user name   aseyller
#       Creation time:       Fri Apr 21 16:29:44 2023


#       File generated by GOLD software.
#

@<TRIPOS>MOLECULE
EN300-135851_i001|aminophenols|mol2|33|dock9
    24    24     1
SMALL
USER_CHARGES


@<TRIPOS>ATOM
      1 C1          28.1609  36.1272  41.8026 C.3            1 <1>                0.0000
      2 O2          29.1844  36.2376  40.7786 O.3            1 <1>                0.0000
      3 C3          28.8008  36.7189  39.5798 C.2            1 <1>                0.0000
      4 O4          27.6349  36.9980  39.3819 O.2            1 <1>                0.0000
      5 C5          29.7958  36.9065  38.5084 C.ar           1 <1>                0.0000
      6 C6          29.6434  37.9430  37.5812 C.ar           1 <1>                0.0000
      7 C7          30.5746  38.1158  36.5814 C.ar           1 <1>                0.0000
      8 C8          31.6658  37.2675  36.4863 C.ar           1 <1>                0.0000
      9 C9          32.6775  37.4676  35.3874 C.3            1 <1>                0.0000
     10 C10         31.8319  36.2362  37.3969 C.ar           1 <1>                0.0000
     11 N11         32.9371  35.3832  37.2950 N.pl3          1 <1>                0.0000
     12 C12         30.9009  36.0520  38.4172 C.ar           1 <1>                0.0000
     13 O13         31.0592  35.0433  39.3117 O.3            1 <1>                0.0000
     14 H14         28.6021  35.7275  42.7157 H              1 <1>                0.0000
     15 H15         27.7401  37.1124  42.0035 H              1 <1>                0.0000
     16 H16         27.3722  35.4588  41.4575 H              1 <1>                0.0000
     17 H17         28.7949  38.6077  37.6493 H              1 <1>                0.0000
     18 H18         30.4534  38.9169  35.8672 H              1 <1>                0.0000
     19 H19         33.4611  38.1417  35.7333 H              1 <1>                0.0000
     20 H20         33.1170  36.5070  35.1188 H              1 <1>                0.0000
     21 H21         32.1861  37.8989  34.5153 H              1 <1>                0.0000
     22 H22         33.5870  35.5138  36.5869 H              1 <1>                0.0000
     23 H23         33.0532  34.6615  37.9326 H              1 <1>                0.0000
     24 H24         31.1048  35.3371  40.2318 H              1 <1>                0.0000
@<TRIPOS>BOND
    1    1    2 1     
    2    1   14 1     
    3    1   15 1     
    4    1   16 1     
    5    2    3 1     
    6    3    4 2     
    7    3    5 1     
    8    5    6 ar    
    9    5   12 ar    
   10    6    7 ar    
   11    6   17 1     
   12    7    8 ar    
   13    7   18 1     
   14    8    9 1     
   15    8   10 ar    
   16    9   19 1     
   17    9   20 1     
   18    9   21 1     
   19   10   11 1     
   20   10   12 ar    
   21   11   22 1     
   22   11   23 1     
   23   12   13 1     
   24   13   24 1     
@<TRIPOS>SUBSTRUCTURE
      1 ****           1
@<TRIPOS>SET
DONOR_HYDROGENS      STATIC     ATOMS    <user>   **** ""
3 22 23 24
ATOM$RED        STATIC     ATOMS    COLORGROUP SYSTEM
3 22 23 24
@<TRIPOS>COMMENT
> <Gold.Version>
2022.2.0

> <Gold.Id.Protein>
1qkm|1qkm_protein|mol2

> <Gold.Protein.RotatedTorsions>
[  496  491  490  487 ] final   65.00 input  -89.99 | X-H torsion

> <Gold.Protein.ActiveResidues>
 MET295  LEU298  THR299  LEU301  ALA302  GLU305  TRP335  MET336  LEU339  MET340 
 GLY342  LEU343  ARG346  PHE356  ILE373  ILE376  PHE377  LEU380  LYS471  GLY472 
 MET473  HIS475  LEU476  LEU477  ASN478  MET479  VAL484  VAL487 

> <Gold.Protein.RotatedAtoms>
   36.5937   33.2573   42.2691 H   0  0  0  0  0  0  0  0  0  0  0  0  # atno 496  bound_to 491 

> <Gold.Score>
     Score     S(PLP)   S(hbond)     S(cho)   S(metal)  DE(clash)   DE(tors)     intcor
     38.60     -36.48       0.99       0.00       0.00       0.00       0.43       0.00

> <Gold.PLP.Fitness>
38.6024

> <Gold.PLP.PLP>
-36.4825

> <Gold.PLP.part.hbond>
-1.0000

> <Gold.PLP.part.metal>
0.0000

> <Gold.PLP.part.buried>
-3.7833

> <Gold.PLP.part.nonpolar>
-31.9723

> <Gold.PLP.part.repulsive>
0.1380

> <Gold.PLP.ligand.clash>
0.0000

> <Gold.PLP.ligand.torsion>
0.4281

> <Gold.PLP.Chemscore.Hbond>
0.9920

> <Gold.PLP.Chemscore.CHOScore>
0.0000

> <Gold.PLP.Chemscore.Metal>
0.0000

> <Gold.Chemscore.Hbonds>
donor molecule, donor type, donor heavy atom, donor atom, acceptor molecule, acceptor atom, score
      L1  H    13    24       P1   470  0.99

> <Gold.PLP.Chemscore.Internal.Correction>
0.0001

