#       Name:                EN300-135851_i001
#       Creating user name   aseyller
#       Creation time:       Fri Apr 21 16:29:47 2023


#       File generated by GOLD software.
#

@<TRIPOS>MOLECULE
EN300-135851_i001|aminophenols|mol2|33|dock14
    24    24     1
SMALL
USER_CHARGES


@<TRIPOS>ATOM
      1 C1          28.6823  36.3654  41.1803 C.3            1 <1>                0.0000
      2 O2          29.6983  36.1817  40.1594 O.3            1 <1>                0.0000
      3 C3          29.4771  36.7640  38.9644 C.2            1 <1>                0.0000
      4 O4          28.4131  37.3062  38.7405 O.2            1 <1>                0.0000
      5 C5          30.5260  36.7429  37.9289 C.ar           1 <1>                0.0000
      6 C6          31.5907  35.8404  38.0251 C.ar           1 <1>                0.0000
      7 C7          32.5692  35.8231  37.0560 C.ar           1 <1>                0.0000
      8 C8          32.5070  36.6962  35.9822 C.ar           1 <1>                0.0000
      9 C9          33.5843  36.6669  34.9287 C.3            1 <1>                0.0000
     10 C10         31.4590  37.5961  35.8717 C.ar           1 <1>                0.0000
     11 N11         31.4024  38.4751  34.7838 N.pl3          1 <1>                0.0000
     12 C12         30.4587  37.6219  36.8415 C.ar           1 <1>                0.0000
     13 O13         29.4300  38.5015  36.7378 O.3            1 <1>                0.0000
     14 H14         28.9837  35.8469  42.0904 H              1 <1>                0.0000
     15 H15         28.5657  37.4287  41.3897 H              1 <1>                0.0000
     16 H16         27.7347  35.9587  40.8273 H              1 <1>                0.0000
     17 H17         31.6455  35.1572  38.8597 H              1 <1>                0.0000
     18 H18         33.3897  35.1251  37.1338 H              1 <1>                0.0000
     19 H19         33.3042  35.9663  34.1421 H              1 <1>                0.0000
     20 H20         33.7030  37.6631  34.5026 H              1 <1>                0.0000
     21 H21         34.5247  36.3500  35.3795 H              1 <1>                0.0000
     22 H22         32.0969  38.4545  34.1070 H              1 <1>                0.0000
     23 H23         30.6686  39.1048  34.7067 H              1 <1>                0.0000
     24 H24         28.9752  38.6751  37.5733 H              1 <1>                0.0000
@<TRIPOS>BOND
    1    1    2 1     
    2    1   14 1     
    3    1   15 1     
    4    1   16 1     
    5    2    3 1     
    6    3    4 2     
    7    3    5 1     
    8    5    6 ar    
    9    5   12 ar    
   10    6    7 ar    
   11    6   17 1     
   12    7    8 ar    
   13    7   18 1     
   14    8    9 1     
   15    8   10 ar    
   16    9   19 1     
   17    9   20 1     
   18    9   21 1     
   19   10   11 1     
   20   10   12 ar    
   21   11   22 1     
   22   11   23 1     
   23   12   13 1     
   24   13   24 1     
@<TRIPOS>SUBSTRUCTURE
      1 ****           1
@<TRIPOS>SET
DONOR_HYDROGENS      STATIC     ATOMS    <user>   **** ""
3 22 23 24
ATOM$RED        STATIC     ATOMS    COLORGROUP SYSTEM
3 22 23 24
@<TRIPOS>COMMENT
> <Gold.Version>
2022.2.0

> <Gold.Id.Protein>
1qkm|1qkm_protein|mol2

> <Gold.Protein.RotatedTorsions>
[  496  491  490  487 ] final  113.67 input  -89.99 | X-H torsion

> <Gold.Protein.ActiveResidues>
 MET295  LEU298  THR299  LEU301  ALA302  GLU305  TRP335  MET336  LEU339  MET340 
 GLY342  LEU343  ARG346  PHE356  ILE373  ILE376  PHE377  LEU380  LYS471  GLY472 
 MET473  HIS475  LEU476  LEU477  ASN478  MET479  VAL484  VAL487 

> <Gold.Protein.RotatedAtoms>
   37.0300   32.9396   41.7097 H   0  0  0  0  0  0  0  0  0  0  0  0  # atno 496  bound_to 491 

> <Gold.Score>
     Score     S(PLP)   S(hbond)     S(cho)   S(metal)  DE(clash)   DE(tors)     intcor
     37.55     -37.89       0.00       0.00       0.00       0.00       0.17       0.00

> <Gold.PLP.Fitness>
37.5550

> <Gold.PLP.PLP>
-37.8938

> <Gold.PLP.part.hbond>
0.0000

> <Gold.PLP.part.metal>
0.0000

> <Gold.PLP.part.buried>
-4.1212

> <Gold.PLP.part.nonpolar>
-34.1768

> <Gold.PLP.part.repulsive>
0.5972

> <Gold.PLP.ligand.clash>
0.0000

> <Gold.PLP.ligand.torsion>
0.1695

> <Gold.PLP.Chemscore.Hbond>
0.0000

> <Gold.PLP.Chemscore.CHOScore>
0.0000

> <Gold.PLP.Chemscore.Metal>
0.0000

> <Gold.PLP.Chemscore.Internal.Correction>
0.0001

