#       Name:                EN300-135851_i001
#       Creating user name   aseyller
#       Creation time:       Fri Apr 21 16:29:40 2023


#       File generated by GOLD software.
#

@<TRIPOS>MOLECULE
EN300-135851_i001|aminophenols|mol2|33|dock4
    24    24     1
SMALL
USER_CHARGES


@<TRIPOS>ATOM
      1 C1          31.3818  37.6308  34.7576 C.3            1 <1>                0.0000
      2 O2          30.2853  37.5608  35.7068 O.3            1 <1>                0.0000
      3 C3          30.5686  37.0829  36.9345 C.2            1 <1>                0.0000
      4 O4          31.7069  36.7625  37.2140 O.2            1 <1>                0.0000
      5 C5          29.4975  36.9486  37.9383 C.ar           1 <1>                0.0000
      6 C6          28.2272  37.4776  37.6859 C.ar           1 <1>                0.0000
      7 C7          27.2285  37.3505  38.6257 C.ar           1 <1>                0.0000
      8 C8          27.4731  36.7000  39.8242 C.ar           1 <1>                0.0000
      9 C9          26.3715  36.5679  40.8441 C.3            1 <1>                0.0000
     10 C10         28.7257  36.1699  40.0897 C.ar           1 <1>                0.0000
     11 N11         28.9656  35.5136  41.3026 N.pl3          1 <1>                0.0000
     12 C12         29.7447  36.2859  39.1464 C.ar           1 <1>                0.0000
     13 O13         30.9733  35.7683  39.4017 O.3            1 <1>                0.0000
     14 H14         31.0184  38.0322  33.8116 H              1 <1>                0.0000
     15 H15         32.1628  38.2808  35.1519 H              1 <1>                0.0000
     16 H16         31.7873  36.6320  34.5966 H              1 <1>                0.0000
     17 H17         28.0297  37.9862  36.7539 H              1 <1>                0.0000
     18 H18         26.2492  37.7605  38.4274 H              1 <1>                0.0000
     19 H19         25.8193  35.6453  40.6650 H              1 <1>                0.0000
     20 H20         26.8035  36.5444  41.8445 H              1 <1>                0.0000
     21 H21         25.6949  37.4184  40.7602 H              1 <1>                0.0000
     22 H22         28.2551  35.4298  41.9576 H              1 <1>                0.0000
     23 H23         29.8424  35.1425  41.4881 H              1 <1>                0.0000
     24 H24         31.0646  35.3904  40.2871 H              1 <1>                0.0000
@<TRIPOS>BOND
    1    1    2 1     
    2    1   14 1     
    3    1   15 1     
    4    1   16 1     
    5    2    3 1     
    6    3    4 2     
    7    3    5 1     
    8    5    6 ar    
    9    5   12 ar    
   10    6    7 ar    
   11    6   17 1     
   12    7    8 ar    
   13    7   18 1     
   14    8    9 1     
   15    8   10 ar    
   16    9   19 1     
   17    9   20 1     
   18    9   21 1     
   19   10   11 1     
   20   10   12 ar    
   21   11   22 1     
   22   11   23 1     
   23   12   13 1     
   24   13   24 1     
@<TRIPOS>SUBSTRUCTURE
      1 ****           1
@<TRIPOS>SET
DONOR_HYDROGENS      STATIC     ATOMS    <user>   **** ""
3 22 23 24
ATOM$RED        STATIC     ATOMS    COLORGROUP SYSTEM
3 22 23 24
@<TRIPOS>COMMENT
> <Gold.Version>
2022.2.0

> <Gold.Id.Protein>
1qkm|1qkm_protein|mol2

> <Gold.Protein.RotatedTorsions>
[  496  491  490  487 ] final   84.80 input  -89.99 | X-H torsion

> <Gold.Protein.ActiveResidues>
 MET295  LEU298  THR299  LEU301  ALA302  GLU305  TRP335  MET336  LEU339  MET340 
 GLY342  LEU343  ARG346  PHE356  ILE373  ILE376  PHE377  LEU380  LYS471  GLY472 
 MET473  HIS475  LEU476  LEU477  ASN478  MET479  VAL484  VAL487 

> <Gold.Protein.RotatedAtoms>
   36.7721   33.0594   42.0843 H   0  0  0  0  0  0  0  0  0  0  0  0  # atno 496  bound_to 491 

> <Gold.Score>
     Score     S(PLP)   S(hbond)     S(cho)   S(metal)  DE(clash)   DE(tors)     intcor
     41.74     -36.04       1.93       0.00       0.00       0.00       0.04       0.00

> <Gold.PLP.Fitness>
41.7431

> <Gold.PLP.PLP>
-36.0364

> <Gold.PLP.part.hbond>
-2.0000

> <Gold.PLP.part.metal>
0.0000

> <Gold.PLP.part.buried>
-2.8496

> <Gold.PLP.part.nonpolar>
-31.2651

> <Gold.PLP.part.repulsive>
0.0964

> <Gold.PLP.ligand.clash>
0.0000

> <Gold.PLP.ligand.torsion>
0.0360

> <Gold.PLP.Chemscore.Hbond>
1.9263

> <Gold.PLP.Chemscore.CHOScore>
0.0000

> <Gold.PLP.Chemscore.Metal>
0.0000

> <Gold.Chemscore.Hbonds>
donor molecule, donor type, donor heavy atom, donor atom, acceptor molecule, acceptor atom, score
      L1  H    11    23       P1   470  0.93
      L1  H    13    24       P1   470  1.00

> <Gold.PLP.Chemscore.Internal.Correction>
0.0001

