#       Name:                EN300-135851_i001
#       Creating user name   aseyller
#       Creation time:       Fri Apr 21 16:29:45 2023


#       File generated by GOLD software.
#

@<TRIPOS>MOLECULE
EN300-135851_i001|aminophenols|mol2|33|dock12
    24    24     1
SMALL
USER_CHARGES


@<TRIPOS>ATOM
      1 C1          31.8871  34.2711  38.2063 C.3            1 <1>                0.0000
      2 O2          30.9775  34.9872  39.0826 O.3            1 <1>                0.0000
      3 C3          30.2107  35.9419  38.5201 C.2            1 <1>                0.0000
      4 O4          30.5845  36.5046  37.5101 O.2            1 <1>                0.0000
      5 C5          28.9184  36.3037  39.1301 C.ar           1 <1>                0.0000
      6 C6          27.9270  36.9229  38.3614 C.ar           1 <1>                0.0000
      7 C7          26.7207  37.2597  38.9342 C.ar           1 <1>                0.0000
      8 C8          26.4803  36.9889  40.2714 C.ar           1 <1>                0.0000
      9 C9          25.1560  37.3626  40.8859 C.3            1 <1>                0.0000
     10 C10         27.4516  36.3756  41.0468 C.ar           1 <1>                0.0000
     11 N11         27.2017  36.1047  42.3972 N.pl3          1 <1>                0.0000
     12 C12         28.6751  36.0241  40.4800 C.ar           1 <1>                0.0000
     13 O13         29.6296  35.4232  41.2353 O.3            1 <1>                0.0000
     14 H14         32.4430  33.5330  38.7845 H              1 <1>                0.0000
     15 H15         31.3179  33.7671  37.4253 H              1 <1>                0.0000
     16 H16         32.5834  34.9755  37.7513 H              1 <1>                0.0000
     17 H17         28.1078  37.1372  37.3185 H              1 <1>                0.0000
     18 H18         25.9579  37.7379  38.3376 H              1 <1>                0.0000
     19 H19         24.4587  36.5316  40.7796 H              1 <1>                0.0000
     20 H20         25.2963  37.5861  41.9435 H              1 <1>                0.0000
     21 H21         24.7552  38.2404  40.3790 H              1 <1>                0.0000
     22 H22         26.3486  36.3461  42.7906 H              1 <1>                0.0000
     23 H23         27.8816  35.6753  42.9396 H              1 <1>                0.0000
     24 H24         30.5203  35.7721  41.0941 H              1 <1>                0.0000
@<TRIPOS>BOND
    1    1    2 1     
    2    1   14 1     
    3    1   15 1     
    4    1   16 1     
    5    2    3 1     
    6    3    4 2     
    7    3    5 1     
    8    5    6 ar    
    9    5   12 ar    
   10    6    7 ar    
   11    6   17 1     
   12    7    8 ar    
   13    7   18 1     
   14    8    9 1     
   15    8   10 ar    
   16    9   19 1     
   17    9   20 1     
   18    9   21 1     
   19   10   11 1     
   20   10   12 ar    
   21   11   22 1     
   22   11   23 1     
   23   12   13 1     
   24   13   24 1     
@<TRIPOS>SUBSTRUCTURE
      1 ****           1
@<TRIPOS>SET
DONOR_HYDROGENS      STATIC     ATOMS    <user>   **** ""
3 22 23 24
ATOM$RED        STATIC     ATOMS    COLORGROUP SYSTEM
3 22 23 24
@<TRIPOS>COMMENT
> <Gold.Version>
2022.2.0

> <Gold.Id.Protein>
1qkm|1qkm_protein|mol2

> <Gold.Protein.RotatedTorsions>
[  496  491  490  487 ] final  128.68 input  -89.99 | X-H torsion

> <Gold.Protein.ActiveResidues>
 MET295  LEU298  THR299  LEU301  ALA302  GLU305  TRP335  MET336  LEU339  MET340 
 GLY342  LEU343  ARG346  PHE356  ILE373  ILE376  PHE377  LEU380  LYS471  GLY472 
 MET473  HIS475  LEU476  LEU477  ASN478  MET479  VAL484  VAL487 

> <Gold.Protein.RotatedAtoms>
   37.1440   32.9659   41.4929 H   0  0  0  0  0  0  0  0  0  0  0  0  # atno 496  bound_to 491 

> <Gold.Score>
     Score     S(PLP)   S(hbond)     S(cho)   S(metal)  DE(clash)   DE(tors)     intcor
     39.26     -39.28       0.37       0.00       0.00       0.00       0.56       0.00

> <Gold.PLP.Fitness>
39.2579

> <Gold.PLP.PLP>
-39.2838

> <Gold.PLP.part.hbond>
-1.2288

> <Gold.PLP.part.metal>
0.0000

> <Gold.PLP.part.buried>
-2.5037

> <Gold.PLP.part.nonpolar>
-35.8278

> <Gold.PLP.part.repulsive>
0.3409

> <Gold.PLP.ligand.clash>
0.0000

> <Gold.PLP.ligand.torsion>
0.5650

> <Gold.PLP.Chemscore.Hbond>
0.3680

> <Gold.PLP.Chemscore.CHOScore>
0.0000

> <Gold.PLP.Chemscore.Metal>
0.0000

> <Gold.Chemscore.Hbonds>
donor molecule, donor type, donor heavy atom, donor atom, acceptor molecule, acceptor atom, score
      L1  H    13    24       P1   470  0.37

> <Gold.PLP.Chemscore.Internal.Correction>
0.0001

