#       Name:                EN300-135851_i001
#       Creating user name   aseyller
#       Creation time:       Fri Apr 21 16:29:51 2023


#       File generated by GOLD software.
#

@<TRIPOS>MOLECULE
EN300-135851_i001|aminophenols|mol2|33|dock19
    24    24     1
SMALL
USER_CHARGES


@<TRIPOS>ATOM
      1 C1          26.5784  36.7175  40.4140 C.3            1 <1>                0.0000
      2 O2          27.5830  36.8326  39.3720 O.3            1 <1>                0.0000
      3 C3          28.8393  36.4632  39.6899 C.2            1 <1>                0.0000
      4 O4          29.0928  36.0759  40.8133 O.2            1 <1>                0.0000
      5 C5          29.9061  36.5291  38.6747 C.ar           1 <1>                0.0000
      6 C6          31.0531  35.7394  38.8080 C.ar           1 <1>                0.0000
      7 C7          32.0481  35.8032  37.8579 C.ar           1 <1>                0.0000
      8 C8          31.9213  36.6469  36.7665 C.ar           1 <1>                0.0000
      9 C9          33.0174  36.7073  35.7340 C.3            1 <1>                0.0000
     10 C10         30.7913  37.4356  36.6192 C.ar           1 <1>                0.0000
     11 N11         30.6698  38.2856  35.5136 N.pl3          1 <1>                0.0000
     12 C12         29.7738  37.3780  37.5695 C.ar           1 <1>                0.0000
     13 O13         28.6650  38.1485  37.4297 O.3            1 <1>                0.0000
     14 H14         25.6140  37.0463  40.0269 H              1 <1>                0.0000
     15 H15         26.5057  35.6785  40.7354 H              1 <1>                0.0000
     16 H16         26.8613  37.3411  41.2620 H              1 <1>                0.0000
     17 H17         31.1586  35.0796  39.6565 H              1 <1>                0.0000
     18 H18         32.9323  35.1922  37.9644 H              1 <1>                0.0000
     19 H19         32.8247  35.9687  34.9559 H              1 <1>                0.0000
     20 H20         33.0450  37.7028  35.2911 H              1 <1>                0.0000
     21 H21         33.9753  36.4938  36.2083 H              1 <1>                0.0000
     22 H22         31.3765  38.3228  34.8504 H              1 <1>                0.0000
     23 H23         29.8786  38.8373  35.4107 H              1 <1>                0.0000
     24 H24         28.0621  37.8479  36.7359 H              1 <1>                0.0000
@<TRIPOS>BOND
    1    1    2 1     
    2    1   14 1     
    3    1   15 1     
    4    1   16 1     
    5    2    3 1     
    6    3    4 2     
    7    3    5 1     
    8    5    6 ar    
    9    5   12 ar    
   10    6    7 ar    
   11    6   17 1     
   12    7    8 ar    
   13    7   18 1     
   14    8    9 1     
   15    8   10 ar    
   16    9   19 1     
   17    9   20 1     
   18    9   21 1     
   19   10   11 1     
   20   10   12 ar    
   21   11   22 1     
   22   11   23 1     
   23   12   13 1     
   24   13   24 1     
@<TRIPOS>SUBSTRUCTURE
      1 ****           1
@<TRIPOS>SET
DONOR_HYDROGENS      STATIC     ATOMS    <user>   **** ""
3 22 23 24
ATOM$RED        STATIC     ATOMS    COLORGROUP SYSTEM
3 22 23 24
@<TRIPOS>COMMENT
> <Gold.Version>
2022.2.0

> <Gold.Id.Protein>
1qkm|1qkm_protein|mol2

> <Gold.Protein.RotatedTorsions>
[  496  491  490  487 ] final   42.62 input  -89.99 | X-H torsion

> <Gold.Protein.ActiveResidues>
 MET295  LEU298  THR299  LEU301  ALA302  GLU305  TRP335  MET336  LEU339  MET340 
 GLY342  LEU343  ARG346  PHE356  ILE373  ILE376  PHE377  LEU380  LYS471  GLY472 
 MET473  HIS475  LEU476  LEU477  ASN478  MET479  VAL484  VAL487 

> <Gold.Protein.RotatedAtoms>
   36.4208   33.5619   42.3752 H   0  0  0  0  0  0  0  0  0  0  0  0  # atno 496  bound_to 491 

> <Gold.Score>
     Score     S(PLP)   S(hbond)     S(cho)   S(metal)  DE(clash)   DE(tors)     intcor
     35.97     -36.42       0.00       0.00       0.00       0.00       0.22       0.00

> <Gold.PLP.Fitness>
35.9740

> <Gold.PLP.PLP>
-36.4218

> <Gold.PLP.part.hbond>
0.0000

> <Gold.PLP.part.metal>
0.0000

> <Gold.PLP.part.buried>
-4.8230

> <Gold.PLP.part.nonpolar>
-32.0547

> <Gold.PLP.part.repulsive>
0.1230

> <Gold.PLP.ligand.clash>
0.0000

> <Gold.PLP.ligand.torsion>
0.2239

> <Gold.PLP.Chemscore.Hbond>
0.0000

> <Gold.PLP.Chemscore.CHOScore>
0.0000

> <Gold.PLP.Chemscore.Metal>
0.0000

> <Gold.PLP.Chemscore.Internal.Correction>
0.0001

