#       Name:                EN300-135851_i001
#       Creating user name   aseyller
#       Creation time:       Fri Apr 21 16:29:39 2023


#       File generated by GOLD software.
#

@<TRIPOS>MOLECULE
EN300-135851_i001|aminophenols|mol2|33|dock2
    24    24     1
SMALL
USER_CHARGES


@<TRIPOS>ATOM
      1 C1          32.1048  36.7895  36.9212 C.3            1 <1>                0.0000
      2 O2          31.0495  36.6876  37.9131 O.3            1 <1>                0.0000
      3 C3          29.8345  37.1544  37.5639 C.2            1 <1>                0.0000
      4 O4          29.6735  37.6776  36.4791 O.2            1 <1>                0.0000
      5 C5          28.7009  37.0304  38.4980 C.ar           1 <1>                0.0000
      6 C6          27.4446  37.5381  38.1501 C.ar           1 <1>                0.0000
      7 C7          26.3874  37.4208  39.0249 C.ar           1 <1>                0.0000
      8 C8          26.5592  36.8012  40.2520 C.ar           1 <1>                0.0000
      9 C9          25.3941  36.6794  41.2001 C.3            1 <1>                0.0000
     10 C10         27.7970  36.2925  40.6119 C.ar           1 <1>                0.0000
     11 N11         27.9632  35.6674  41.8534 N.pl3          1 <1>                0.0000
     12 C12         28.8748  36.3990  39.7352 C.ar           1 <1>                0.0000
     13 O13         30.0892  35.9022  40.0831 O.3            1 <1>                0.0000
     14 H14         33.0282  36.3787  37.3295 H              1 <1>                0.0000
     15 H15         31.8211  36.2299  36.0299 H              1 <1>                0.0000
     16 H16         32.2576  37.8365  36.6594 H              1 <1>                0.0000
     17 H17         27.3037  38.0226  37.1952 H              1 <1>                0.0000
     18 H18         25.4191  37.8142  38.7529 H              1 <1>                0.0000
     19 H19         24.8647  35.7463  41.0072 H              1 <1>                0.0000
     20 H20         25.7593  36.6843  42.2271 H              1 <1>                0.0000
     21 H21         24.7156  37.5195  41.0517 H              1 <1>                0.0000
     22 H22         27.2119  35.5901  42.4620 H              1 <1>                0.0000
     23 H23         28.8297  35.3112  42.1049 H              1 <1>                0.0000
     24 H24         30.2217  35.8197  41.0374 H              1 <1>                0.0000
@<TRIPOS>BOND
    1    1    2 1     
    2    1   14 1     
    3    1   15 1     
    4    1   16 1     
    5    2    3 1     
    6    3    4 2     
    7    3    5 1     
    8    5    6 ar    
    9    5   12 ar    
   10    6    7 ar    
   11    6   17 1     
   12    7    8 ar    
   13    7   18 1     
   14    8    9 1     
   15    8   10 ar    
   16    9   19 1     
   17    9   20 1     
   18    9   21 1     
   19   10   11 1     
   20   10   12 ar    
   21   11   22 1     
   22   11   23 1     
   23   12   13 1     
   24   13   24 1     
@<TRIPOS>SUBSTRUCTURE
      1 ****           1
@<TRIPOS>SET
DONOR_HYDROGENS      STATIC     ATOMS    <user>   **** ""
3 22 23 24
ATOM$RED        STATIC     ATOMS    COLORGROUP SYSTEM
3 22 23 24
@<TRIPOS>COMMENT
> <Gold.Version>
2022.2.0

> <Gold.Id.Protein>
1qkm|1qkm_protein|mol2

> <Gold.Protein.RotatedTorsions>
[  496  491  490  487 ] final -103.55 input  -89.99 | X-H torsion

> <Gold.Protein.ActiveResidues>
 MET295  LEU298  THR299  LEU301  ALA302  GLU305  TRP335  MET336  LEU339  MET340 
 GLY342  LEU343  ARG346  PHE356  ILE373  ILE376  PHE377  LEU380  LYS471  GLY472 
 MET473  HIS475  LEU476  LEU477  ASN478  MET479  VAL484  VAL487 

> <Gold.Protein.RotatedAtoms>
   36.8821   34.5426   40.9321 H   0  0  0  0  0  0  0  0  0  0  0  0  # atno 496  bound_to 491 

> <Gold.Score>
     Score     S(PLP)   S(hbond)     S(cho)   S(metal)  DE(clash)   DE(tors)     intcor
     45.23     -40.44       1.61       0.00       0.00       0.02       0.01       0.00

> <Gold.PLP.Fitness>
45.2308

> <Gold.PLP.PLP>
-40.4419

> <Gold.PLP.part.hbond>
-2.0000

> <Gold.PLP.part.metal>
0.0000

> <Gold.PLP.part.buried>
-4.8642

> <Gold.PLP.part.nonpolar>
-34.5795

> <Gold.PLP.part.repulsive>
0.0914

> <Gold.PLP.ligand.clash>
0.0196

> <Gold.PLP.ligand.torsion>
0.0077

> <Gold.PLP.Chemscore.Hbond>
1.6080

> <Gold.PLP.Chemscore.CHOScore>
0.0000

> <Gold.PLP.Chemscore.Metal>
0.0000

> <Gold.Chemscore.Hbonds>
donor molecule, donor type, donor heavy atom, donor atom, acceptor molecule, acceptor atom, score
      L1  H    11    22       P1   582  1.00
      L1  H    13    24       P1   470  0.61

> <Gold.PLP.Chemscore.Internal.Correction>
0.0001

