#       Name:                EN300-135851_i001
#       Creating user name   aseyller
#       Creation time:       Fri Apr 21 16:29:41 2023


#       File generated by GOLD software.
#

@<TRIPOS>MOLECULE
EN300-135851_i001|aminophenols|mol2|33|dock6
    24    24     1
SMALL
USER_CHARGES


@<TRIPOS>ATOM
      1 C1          32.9110  37.1223  34.6108 C.3            1 <1>                0.0000
      2 O2          31.6869  37.2487  35.3815 O.3            1 <1>                0.0000
      3 C3          31.6384  36.6024  36.5629 C.2            1 <1>                0.0000
      4 O4          32.5871  35.9389  36.9318 O.2            1 <1>                0.0000
      5 C5          30.4343  36.7002  37.4076 C.ar           1 <1>                0.0000
      6 C6          29.2950  37.3596  36.9339 C.ar           1 <1>                0.0000
      7 C7          28.1715  37.4493  37.7254 C.ar           1 <1>                0.0000
      8 C8          28.1608  36.8893  38.9925 C.ar           1 <1>                0.0000
      9 C9          26.9249  36.9946  39.8484 C.3            1 <1>                0.0000
     10 C10         29.2808  36.2323  39.4767 C.ar           1 <1>                0.0000
     11 N11         29.2628  35.6685  40.7578 N.pl3          1 <1>                0.0000
     12 C12         30.4232  36.1287  38.6855 C.ar           1 <1>                0.0000
     13 O13         31.5228  35.4862  39.1552 O.3            1 <1>                0.0000
     14 H14         32.8175  37.6895  33.6847 H              1 <1>                0.0000
     15 H15         33.7477  37.5104  35.1916 H              1 <1>                0.0000
     16 H16         33.0867  36.0723  34.3775 H              1 <1>                0.0000
     17 H17         29.2966  37.7987  35.9472 H              1 <1>                0.0000
     18 H18         27.2940  37.9594  37.3563 H              1 <1>                0.0000
     19 H19         26.2792  36.1366  39.6614 H              1 <1>                0.0000
     20 H20         27.2115  37.0113  40.8999 H              1 <1>                0.0000
     21 H21         26.3901  37.9121  39.6029 H              1 <1>                0.0000
     22 H22         28.4662  35.7375  41.3069 H              1 <1>                0.0000
     23 H23         30.0468  35.2085  41.0964 H              1 <1>                0.0000
     24 H24         31.4405  35.1831  40.0698 H              1 <1>                0.0000
@<TRIPOS>BOND
    1    1    2 1     
    2    1   14 1     
    3    1   15 1     
    4    1   16 1     
    5    2    3 1     
    6    3    4 2     
    7    3    5 1     
    8    5    6 ar    
    9    5   12 ar    
   10    6    7 ar    
   11    6   17 1     
   12    7    8 ar    
   13    7   18 1     
   14    8    9 1     
   15    8   10 ar    
   16    9   19 1     
   17    9   20 1     
   18    9   21 1     
   19   10   11 1     
   20   10   12 ar    
   21   11   22 1     
   22   11   23 1     
   23   12   13 1     
   24   13   24 1     
@<TRIPOS>SUBSTRUCTURE
      1 ****           1
@<TRIPOS>SET
DONOR_HYDROGENS      STATIC     ATOMS    <user>   **** ""
3 22 23 24
ATOM$RED        STATIC     ATOMS    COLORGROUP SYSTEM
3 22 23 24
@<TRIPOS>COMMENT
> <Gold.Version>
2022.2.0

> <Gold.Id.Protein>
1qkm|1qkm_protein|mol2

> <Gold.Protein.RotatedTorsions>
[  496  491  490  487 ] final -145.36 input  -89.99 | X-H torsion

> <Gold.Protein.ActiveResidues>
 MET295  LEU298  THR299  LEU301  ALA302  GLU305  TRP335  MET336  LEU339  MET340 
 GLY342  LEU343  ARG346  PHE356  ILE373  ILE376  PHE377  LEU380  LYS471  GLY472 
 MET473  HIS475  LEU476  LEU477  ASN478  MET479  VAL484  VAL487 

> <Gold.Protein.RotatedAtoms>
   37.2062   33.9919   40.7201 H   0  0  0  0  0  0  0  0  0  0  0  0  # atno 496  bound_to 491 

> <Gold.Score>
     Score     S(PLP)   S(hbond)     S(cho)   S(metal)  DE(clash)   DE(tors)     intcor
     39.33     -34.26       1.70       0.00       0.00       0.00       0.02       0.00

> <Gold.PLP.Fitness>
39.3278

> <Gold.PLP.PLP>
-34.2593

> <Gold.PLP.part.hbond>
-2.0000

> <Gold.PLP.part.metal>
0.0000

> <Gold.PLP.part.buried>
-2.6628

> <Gold.PLP.part.nonpolar>
-29.8570

> <Gold.PLP.part.repulsive>
0.1278

> <Gold.PLP.ligand.clash>
0.0000

> <Gold.PLP.ligand.torsion>
0.0158

> <Gold.PLP.Chemscore.Hbond>
1.7000

> <Gold.PLP.Chemscore.CHOScore>
0.0000

> <Gold.PLP.Chemscore.Metal>
0.0000

> <Gold.Chemscore.Hbonds>
donor molecule, donor type, donor heavy atom, donor atom, acceptor molecule, acceptor atom, score
      L1  H    11    23       P1   470  1.00
      L1  H    13    24       P1   470  0.70

> <Gold.PLP.Chemscore.Internal.Correction>
0.0001

