#       Name:                EN300-135851_i001
#       Creating user name   aseyller
#       Creation time:       Fri Apr 21 16:29:50 2023


#       File generated by GOLD software.
#

@<TRIPOS>MOLECULE
EN300-135851_i001|aminophenols|mol2|33|dock17
    24    24     1
SMALL
USER_CHARGES


@<TRIPOS>ATOM
      1 C1          32.2282  36.3286  36.9773 C.3            1 <1>                0.0000
      2 O2          30.9424  36.6534  37.5684 O.3            1 <1>                0.0000
      3 C3          30.5727  35.9471  38.6549 C.2            1 <1>                0.0000
      4 O4          31.3093  35.0907  39.1023 O.2            1 <1>                0.0000
      5 C5          29.2745  36.2136  39.3004 C.ar           1 <1>                0.0000
      6 C6          29.0273  35.7537  40.5984 C.ar           1 <1>                0.0000
      7 C7          27.8134  36.0042  41.1988 C.ar           1 <1>                0.0000
      8 C8          26.8311  36.7111  40.5246 C.ar           1 <1>                0.0000
      9 C9          25.5071  36.9783  41.1931 C.3            1 <1>                0.0000
     10 C10         27.0599  37.1740  39.2386 C.ar           1 <1>                0.0000
     11 N11         26.0629  37.8878  38.5634 N.pl3          1 <1>                0.0000
     12 C12         28.2850  36.9329  38.6199 C.ar           1 <1>                0.0000
     13 O13         28.5141  37.3843  37.3604 O.3            1 <1>                0.0000
     14 H14         32.4027  36.9689  36.1127 H              1 <1>                0.0000
     15 H15         33.0168  36.4880  37.7126 H              1 <1>                0.0000
     16 H16         32.2303  35.2850  36.6628 H              1 <1>                0.0000
     17 H17         29.7886  35.2018  41.1296 H              1 <1>                0.0000
     18 H18         27.6262  35.6473  42.2008 H              1 <1>                0.0000
     19 H19         25.5583  37.9219  41.7363 H              1 <1>                0.0000
     20 H20         24.7237  37.0361  40.4375 H              1 <1>                0.0000
     21 H21         25.2819  36.1702  41.8890 H              1 <1>                0.0000
     22 H22         25.2115  38.0586  38.9957 H              1 <1>                0.0000
     23 H23         26.2234  38.2119  37.6634 H              1 <1>                0.0000
     24 H24         28.3734  36.7193  36.6726 H              1 <1>                0.0000
@<TRIPOS>BOND
    1    1    2 1     
    2    1   14 1     
    3    1   15 1     
    4    1   16 1     
    5    2    3 1     
    6    3    4 2     
    7    3    5 1     
    8    5    6 ar    
    9    5   12 ar    
   10    6    7 ar    
   11    6   17 1     
   12    7    8 ar    
   13    7   18 1     
   14    8    9 1     
   15    8   10 ar    
   16    9   19 1     
   17    9   20 1     
   18    9   21 1     
   19   10   11 1     
   20   10   12 ar    
   21   11   22 1     
   22   11   23 1     
   23   12   13 1     
   24   13   24 1     
@<TRIPOS>SUBSTRUCTURE
      1 ****           1
@<TRIPOS>SET
DONOR_HYDROGENS      STATIC     ATOMS    <user>   **** ""
3 22 23 24
ATOM$RED        STATIC     ATOMS    COLORGROUP SYSTEM
3 22 23 24
@<TRIPOS>COMMENT
> <Gold.Version>
2022.2.0

> <Gold.Id.Protein>
1qkm|1qkm_protein|mol2

> <Gold.Protein.RotatedTorsions>
[  496  491  490  487 ] final   80.49 input  -89.99 | X-H torsion

> <Gold.Protein.ActiveResidues>
 MET295  LEU298  THR299  LEU301  ALA302  GLU305  TRP335  MET336  LEU339  MET340 
 GLY342  LEU343  ARG346  PHE356  ILE373  ILE376  PHE377  LEU380  LYS471  GLY472 
 MET473  HIS475  LEU476  LEU477  ASN478  MET479  VAL484  VAL487 

> <Gold.Protein.RotatedAtoms>
   36.7324   33.0952   42.1307 H   0  0  0  0  0  0  0  0  0  0  0  0  # atno 496  bound_to 491 

> <Gold.Score>
     Score     S(PLP)   S(hbond)     S(cho)   S(metal)  DE(clash)   DE(tors)     intcor
     38.42     -38.66       0.00       0.00       0.00       0.00       0.12       0.00

> <Gold.PLP.Fitness>
38.4172

> <Gold.PLP.PLP>
-38.6616

> <Gold.PLP.part.hbond>
0.0000

> <Gold.PLP.part.metal>
0.0000

> <Gold.PLP.part.buried>
-3.5428

> <Gold.PLP.part.nonpolar>
-35.8948

> <Gold.PLP.part.repulsive>
0.9365

> <Gold.PLP.ligand.clash>
0.0000

> <Gold.PLP.ligand.torsion>
0.1222

> <Gold.PLP.Chemscore.Hbond>
0.0000

> <Gold.PLP.Chemscore.CHOScore>
0.0000

> <Gold.PLP.Chemscore.Metal>
0.0000

> <Gold.PLP.Chemscore.Internal.Correction>
0.0001

