#       Name:                EN300-135851_i001
#       Creating user name   aseyller
#       Creation time:       Fri Apr 21 16:29:38 2023


#       File generated by GOLD software.
#

@<TRIPOS>MOLECULE
EN300-135851_i001|aminophenols|mol2|33|dock1
    24    24     1
SMALL
USER_CHARGES


@<TRIPOS>ATOM
      1 C1          30.8139  37.7173  35.4672 C.3            1 <1>                0.0000
      2 O2          29.6920  37.7260  36.3888 O.3            1 <1>                0.0000
      3 C3          29.8206  36.9989  37.5161 C.2            1 <1>                0.0000
      4 O4          30.8649  36.4245  37.7526 O.2            1 <1>                0.0000
      5 C5          28.6944  36.9002  38.4620 C.ar           1 <1>                0.0000
      6 C6          27.4552  37.4645  38.1409 C.ar           1 <1>                0.0000
      7 C7          26.4048  37.3707  39.0267 C.ar           1 <1>                0.0000
      8 C8          26.5665  36.7190  40.2384 C.ar           1 <1>                0.0000
      9 C9          25.4090  36.6235  41.1988 C.3            1 <1>                0.0000
     10 C10         27.7873  36.1542  40.5718 C.ar           1 <1>                0.0000
     11 N11         27.9434  35.4969  41.7978 N.pl3          1 <1>                0.0000
     12 C12         28.8579  36.2364  39.6835 C.ar           1 <1>                0.0000
     13 O13         30.0556  35.6847  40.0054 O.3            1 <1>                0.0000
     14 H14         30.5801  38.3407  34.6042 H              1 <1>                0.0000
     15 H15         31.6991  38.1085  35.9687 H              1 <1>                0.0000
     16 H16         31.0049  36.6964  35.1369 H              1 <1>                0.0000
     17 H17         27.3222  37.9743  37.1981 H              1 <1>                0.0000
     18 H18         25.4497  37.8079  38.7754 H              1 <1>                0.0000
     19 H19         24.8406  35.7164  40.9935 H              1 <1>                0.0000
     20 H20         25.7865  36.5922  42.2209 H              1 <1>                0.0000
     21 H21         24.7629  37.4927  41.0765 H              1 <1>                0.0000
     22 H22         27.1971  35.4367  42.4143 H              1 <1>                0.0000
     23 H23         28.7980  35.1015  42.0307 H              1 <1>                0.0000
     24 H24         30.3270  35.8401  40.9204 H              1 <1>                0.0000
@<TRIPOS>BOND
    1    1    2 1     
    2    1   14 1     
    3    1   15 1     
    4    1   16 1     
    5    2    3 1     
    6    3    4 2     
    7    3    5 1     
    8    5    6 ar    
    9    5   12 ar    
   10    6    7 ar    
   11    6   17 1     
   12    7    8 ar    
   13    7   18 1     
   14    8    9 1     
   15    8   10 ar    
   16    9   19 1     
   17    9   20 1     
   18    9   21 1     
   19   10   11 1     
   20   10   12 ar    
   21   11   22 1     
   22   11   23 1     
   23   12   13 1     
   24   13   24 1     
@<TRIPOS>SUBSTRUCTURE
      1 ****           1
@<TRIPOS>SET
DONOR_HYDROGENS      STATIC     ATOMS    <user>   **** ""
3 22 23 24
ATOM$RED        STATIC     ATOMS    COLORGROUP SYSTEM
3 22 23 24
@<TRIPOS>COMMENT
> <Gold.Version>
2022.2.0

> <Gold.Id.Protein>
1qkm|1qkm_protein|mol2

> <Gold.Protein.RotatedTorsions>
[  496  491  490  487 ] final -166.63 input  -89.99 | X-H torsion

> <Gold.Protein.ActiveResidues>
 MET295  LEU298  THR299  LEU301  ALA302  GLU305  TRP335  MET336  LEU339  MET340 
 GLY342  LEU343  ARG346  PHE356  ILE373  ILE376  PHE377  LEU380  LYS471  GLY472 
 MET473  HIS475  LEU476  LEU477  ASN478  MET479  VAL484  VAL487 

> <Gold.Protein.RotatedAtoms>
   37.2962   33.6604   40.7767 H   0  0  0  0  0  0  0  0  0  0  0  0  # atno 496  bound_to 491 

> <Gold.Score>
     Score     S(PLP)   S(hbond)     S(cho)   S(metal)  DE(clash)   DE(tors)     intcor
     45.57     -40.56       1.69       0.00       0.00       0.00       0.02       0.00

> <Gold.PLP.Fitness>
45.5749

> <Gold.PLP.PLP>
-40.5605

> <Gold.PLP.part.hbond>
-2.0000

> <Gold.PLP.part.metal>
0.0000

> <Gold.PLP.part.buried>
-4.9493

> <Gold.PLP.part.nonpolar>
-34.6375

> <Gold.PLP.part.repulsive>
0.0898

> <Gold.PLP.ligand.clash>
0.0000

> <Gold.PLP.ligand.torsion>
0.0248

> <Gold.PLP.Chemscore.Hbond>
1.6880

> <Gold.PLP.Chemscore.CHOScore>
0.0000

> <Gold.PLP.Chemscore.Metal>
0.0000

> <Gold.Chemscore.Hbonds>
donor molecule, donor type, donor heavy atom, donor atom, acceptor molecule, acceptor atom, score
      L1  H    11    22       P1   582  1.00
      L1  H    13    24       P1   470  0.69

> <Gold.PLP.Chemscore.Internal.Correction>
0.0001

