#       Name:                EN300-135851_i001
#       Creating user name   aseyller
#       Creation time:       Fri Apr 21 16:29:37 2023


#       File generated by GOLD software.
#

@<TRIPOS>MOLECULE
EN300-135851_i001
    24    24     1
SMALL
USER_CHARGES


@<TRIPOS>ATOM
      1 C1           4.4758   0.3501   0.0343 C.3            1 <1>                0.0000
      2 O2           3.0733   0.7258   0.0310 O.3            1 <1>                0.0000
      3 C3           2.1717  -0.2757   0.0401 C.2            1 <1>                0.0000
      4 O4           2.5473  -1.4312   0.0504 O.2            1 <1>                0.0000
      5 C5           0.7298   0.0307   0.0374 C.ar           1 <1>                0.0000
      6 C6           0.2936   1.3599   0.0255 C.ar           1 <1>                0.0000
      7 C7          -1.0542   1.6430   0.0230 C.ar           1 <1>                0.0000
      8 C8          -1.9854   0.6173   0.0322 C.ar           1 <1>                0.0000
      9 C9          -3.4573   0.9408   0.0294 C.3            1 <1>                0.0000
     10 C10         -1.5701  -0.7048   0.0436 C.ar           1 <1>                0.0000
     11 N11         -2.5166  -1.7361   0.0525 N.pl3          1 <1>                0.0000
     12 C12         -0.2098  -1.0070   0.0409 C.ar           1 <1>                0.0000
     13 O13          0.2020  -2.3004   0.0520 O.3            1 <1>                0.0000
     14 H14          5.0927   1.2487   0.0262 H              1 <1>                0.0000
     15 H15          4.6939  -0.2322   0.9295 H              1 <1>                0.0000
     16 H16          4.6938  -0.2482  -0.8503 H              1 <1>                0.0000
     17 H17          1.0141   2.1644   0.0186 H              1 <1>                0.0000
     18 H18         -1.3871   2.6704   0.0141 H              1 <1>                0.0000
     19 H19         -3.8122   1.0096  -0.9989 H              1 <1>                0.0000
     20 H20         -4.0032   0.1542   0.5503 H              1 <1>                0.0000
     21 H21         -3.6210   1.8926   0.5347 H              1 <1>                0.0000
     22 H22         -3.4634  -1.5255   0.0507 H              1 <1>                0.0000
     23 H23         -2.2256  -2.6614   0.0603 H              1 <1>                0.0000
     24 H24          0.3176  -2.6839  -0.8281 H              1 <1>                0.0000
@<TRIPOS>BOND
    1    1    2 1     
    2    1   14 1     
    3    1   15 1     
    4    1   16 1     
    5    2    3 1     
    6    3    4 2     
    7    3    5 1     
    8    5    6 ar    
    9    5   12 ar    
   10    6    7 ar    
   11    6   17 1     
   12    7    8 ar    
   13    7   18 1     
   14    8    9 1     
   15    8   10 ar    
   16    9   19 1     
   17    9   20 1     
   18    9   21 1     
   19   10   11 1     
   20   10   12 ar    
   21   11   22 1     
   22   11   23 1     
   23   12   13 1     
   24   13   24 1     
@<TRIPOS>SUBSTRUCTURE
      1 ****           1
@<TRIPOS>SET
DONOR_HYDROGENS      STATIC     ATOMS    <user>   **** ""
3 22 23 24
ATOM$RED        STATIC     ATOMS    COLORGROUP SYSTEM
3 22 23 24
