#       Name:                EN300-135851_i001
#       Creating user name   aseyller
#       Creation time:       Fri Apr 21 16:29:48 2023


#       File generated by GOLD software.
#

@<TRIPOS>MOLECULE
EN300-135851_i001|aminophenols|mol2|33|dock15
    24    24     1
SMALL
USER_CHARGES


@<TRIPOS>ATOM
      1 C1          32.6407  37.2423  35.5932 C.3            1 <1>                0.0000
      2 O2          31.4914  37.6437  36.3846 O.3            1 <1>                0.0000
      3 C3          31.1497  36.8457  37.4154 C.2            1 <1>                0.0000
      4 O4          31.9692  36.0872  37.8942 O.2            1 <1>                0.0000
      5 C5          29.7814  36.8931  37.9618 C.ar           1 <1>                0.0000
      6 C6          28.8082  37.6920  37.3521 C.ar           1 <1>                0.0000
      7 C7          27.5307  37.7342  37.8650 C.ar           1 <1>                0.0000
      8 C8          27.2006  36.9884  38.9848 C.ar           1 <1>                0.0000
      9 C9          25.7990  37.0436  39.5360 C.3            1 <1>                0.0000
     10 C10         28.1526  36.1915  39.6006 C.ar           1 <1>                0.0000
     11 N11         27.8119  35.4403  40.7315 N.pl3          1 <1>                0.0000
     12 C12         29.4480  36.1344  39.0901 C.ar           1 <1>                0.0000
     13 O13         30.3841  35.3554  39.6896 O.3            1 <1>                0.0000
     14 H14         32.8064  37.9695  34.7984 H              1 <1>                0.0000
     15 H15         33.5228  37.1946  36.2317 H              1 <1>                0.0000
     16 H16         32.4557  36.2614  35.1554 H              1 <1>                0.0000
     17 H17         29.0588  38.2762  36.4790 H              1 <1>                0.0000
     18 H18         26.7822  38.3523  37.3917 H              1 <1>                0.0000
     19 H19         25.1928  36.2695  39.0654 H              1 <1>                0.0000
     20 H20         25.8255  36.8795  40.6132 H              1 <1>                0.0000
     21 H21         25.3651  38.0215  39.3279 H              1 <1>                0.0000
     22 H22         26.9092  35.4774  41.0845 H              1 <1>                0.0000
     23 H23         28.4784  34.8825  41.1622 H              1 <1>                0.0000
     24 H24         30.7167  35.7123  40.5244 H              1 <1>                0.0000
@<TRIPOS>BOND
    1    1    2 1     
    2    1   14 1     
    3    1   15 1     
    4    1   16 1     
    5    2    3 1     
    6    3    4 2     
    7    3    5 1     
    8    5    6 ar    
    9    5   12 ar    
   10    6    7 ar    
   11    6   17 1     
   12    7    8 ar    
   13    7   18 1     
   14    8    9 1     
   15    8   10 ar    
   16    9   19 1     
   17    9   20 1     
   18    9   21 1     
   19   10   11 1     
   20   10   12 ar    
   21   11   22 1     
   22   11   23 1     
   23   12   13 1     
   24   13   24 1     
@<TRIPOS>SUBSTRUCTURE
      1 ****           1
@<TRIPOS>SET
DONOR_HYDROGENS      STATIC     ATOMS    <user>   **** ""
3 22 23 24
ATOM$RED        STATIC     ATOMS    COLORGROUP SYSTEM
3 22 23 24
@<TRIPOS>COMMENT
> <Gold.Version>
2022.2.0

> <Gold.Id.Protein>
1qkm|1qkm_protein|mol2

> <Gold.Protein.RotatedTorsions>
[  496  491  490  487 ] final  -21.16 input  -89.99 | X-H torsion

> <Gold.Protein.ActiveResidues>
 MET295  LEU298  THR299  LEU301  ALA302  GLU305  TRP335  MET336  LEU339  MET340 
 GLY342  LEU343  ARG346  PHE356  ILE373  ILE376  PHE377  LEU380  LYS471  GLY472 
 MET473  HIS475  LEU476  LEU477  ASN478  MET479  VAL484  VAL487 

> <Gold.Protein.RotatedAtoms>
   36.2840   34.4827   42.0194 H   0  0  0  0  0  0  0  0  0  0  0  0  # atno 496  bound_to 491 

> <Gold.Score>
     Score     S(PLP)   S(hbond)     S(cho)   S(metal)  DE(clash)   DE(tors)     intcor
     38.91     -37.19       0.78       0.00       0.00       0.00       0.31       0.00

> <Gold.PLP.Fitness>
38.9129

> <Gold.PLP.PLP>
-37.1877

> <Gold.PLP.part.hbond>
-1.0000

> <Gold.PLP.part.metal>
0.0000

> <Gold.PLP.part.buried>
-4.5476

> <Gold.PLP.part.nonpolar>
-32.1659

> <Gold.PLP.part.repulsive>
0.0728

> <Gold.PLP.ligand.clash>
0.0000

> <Gold.PLP.ligand.torsion>
0.3134

> <Gold.PLP.Chemscore.Hbond>
0.7840

> <Gold.PLP.Chemscore.CHOScore>
0.0000

> <Gold.PLP.Chemscore.Metal>
0.0000

> <Gold.Chemscore.Hbonds>
donor molecule, donor type, donor heavy atom, donor atom, acceptor molecule, acceptor atom, score
      L1  H    13    24       P1   470  0.78

> <Gold.PLP.Chemscore.Internal.Correction>
0.0001

