#       Name:                EN300-135851_i001
#       Creating user name   aseyller
#       Creation time:       Fri Apr 21 16:29:45 2023


#       File generated by GOLD software.
#

@<TRIPOS>MOLECULE
EN300-135851_i001|aminophenols|mol2|33|dock11
    24    24     1
SMALL
USER_CHARGES


@<TRIPOS>ATOM
      1 C1          26.3823  36.6820  40.7984 C.3            1 <1>                0.0000
      2 O2          27.2573  36.9708  39.6763 O.3            1 <1>                0.0000
      3 C3          28.5483  36.6036  39.7970 C.2            1 <1>                0.0000
      4 O4          28.9264  36.0332  40.8010 O.2            1 <1>                0.0000
      5 C5          29.5017  36.8942  38.7109 C.ar           1 <1>                0.0000
      6 C6          29.2639  37.9565  37.8322 C.ar           1 <1>                0.0000
      7 C7          30.1565  38.2254  36.8184 C.ar           1 <1>                0.0000
      8 C8          31.2930  37.4489  36.6615 C.ar           1 <1>                0.0000
      9 C9          32.2616  37.7539  35.5480 C.3            1 <1>                0.0000
     10 C10         31.5437  36.3931  37.5235 C.ar           1 <1>                0.0000
     11 N11         32.6942  35.6129  37.3592 N.pl3          1 <1>                0.0000
     12 C12         30.6525  36.1120  38.5572 C.ar           1 <1>                0.0000
     13 O13         30.8936  35.0791  39.4042 O.3            1 <1>                0.0000
     14 H14         25.3739  37.0281  40.5714 H              1 <1>                0.0000
     15 H15         26.3654  35.6072  40.9788 H              1 <1>                0.0000
     16 H16         26.7505  37.1939  41.6875 H              1 <1>                0.0000
     17 H17         28.3798  38.5657  37.9486 H              1 <1>                0.0000
     18 H18         29.9693  39.0462  36.1419 H              1 <1>                0.0000
     19 H19         33.0130  38.4591  35.9031 H              1 <1>                0.0000
     20 H20         32.7498  36.8331  35.2287 H              1 <1>                0.0000
     21 H21         31.7227  38.1900  34.7069 H              1 <1>                0.0000
     22 H22         33.3162  35.8111  36.6418 H              1 <1>                0.0000
     23 H23         32.8695  34.8741  37.9628 H              1 <1>                0.0000
     24 H24         31.0928  35.3517  40.3103 H              1 <1>                0.0000
@<TRIPOS>BOND
    1    1    2 1     
    2    1   14 1     
    3    1   15 1     
    4    1   16 1     
    5    2    3 1     
    6    3    4 2     
    7    3    5 1     
    8    5    6 ar    
    9    5   12 ar    
   10    6    7 ar    
   11    6   17 1     
   12    7    8 ar    
   13    7   18 1     
   14    8    9 1     
   15    8   10 ar    
   16    9   19 1     
   17    9   20 1     
   18    9   21 1     
   19   10   11 1     
   20   10   12 ar    
   21   11   22 1     
   22   11   23 1     
   23   12   13 1     
   24   13   24 1     
@<TRIPOS>SUBSTRUCTURE
      1 ****           1
@<TRIPOS>SET
DONOR_HYDROGENS      STATIC     ATOMS    <user>   **** ""
3 22 23 24
ATOM$RED        STATIC     ATOMS    COLORGROUP SYSTEM
3 22 23 24
@<TRIPOS>COMMENT
> <Gold.Version>
2022.2.0

> <Gold.Id.Protein>
1qkm|1qkm_protein|mol2

> <Gold.Protein.RotatedTorsions>
[  496  491  490  487 ] final  150.41 input  -89.99 | X-H torsion

> <Gold.Protein.ActiveResidues>
 MET295  LEU298  THR299  LEU301  ALA302  GLU305  TRP335  MET336  LEU339  MET340 
 GLY342  LEU343  ARG346  PHE356  ILE373  ILE376  PHE377  LEU380  LYS471  GLY472 
 MET473  HIS475  LEU476  LEU477  ASN478  MET479  VAL484  VAL487 

> <Gold.Protein.RotatedAtoms>
   37.2644   33.1079   41.1900 H   0  0  0  0  0  0  0  0  0  0  0  0  # atno 496  bound_to 491 

> <Gold.Score>
     Score     S(PLP)   S(hbond)     S(cho)   S(metal)  DE(clash)   DE(tors)     intcor
     38.56     -36.11       1.00       0.00       0.00       0.00       0.27       0.00

> <Gold.PLP.Fitness>
38.5624

> <Gold.PLP.PLP>
-36.1092

> <Gold.PLP.part.hbond>
-1.0000

> <Gold.PLP.part.metal>
0.0000

> <Gold.PLP.part.buried>
-4.5969

> <Gold.PLP.part.nonpolar>
-30.9012

> <Gold.PLP.part.repulsive>
0.1492

> <Gold.PLP.ligand.clash>
0.0000

> <Gold.PLP.ligand.torsion>
0.2735

> <Gold.PLP.Chemscore.Hbond>
1.0000

> <Gold.PLP.Chemscore.CHOScore>
0.0000

> <Gold.PLP.Chemscore.Metal>
0.0000

> <Gold.Chemscore.Hbonds>
donor molecule, donor type, donor heavy atom, donor atom, acceptor molecule, acceptor atom, score
      L1  H    13    24       P1   470  1.00

> <Gold.PLP.Chemscore.Internal.Correction>
0.0001

