#       Name:                EN300-135851_i001
#       Creating user name   aseyller
#       Creation time:       Fri Apr 21 16:29:41 2023


#       File generated by GOLD software.
#

@<TRIPOS>MOLECULE
EN300-135851_i001|aminophenols|mol2|33|dock5
    24    24     1
SMALL
USER_CHARGES


@<TRIPOS>ATOM
      1 C1          25.6957  36.7436  41.2184 C.3            1 <1>                0.0000
      2 O2          27.0050  36.5395  40.6248 O.3            1 <1>                0.0000
      3 C3          27.1933  37.0182  39.3793 C.2            1 <1>                0.0000
      4 O4          26.2848  37.5806  38.8007 O.2            1 <1>                0.0000
      5 C5          28.5015  36.8594  38.7187 C.ar           1 <1>                0.0000
      6 C6          28.7448  37.4716  37.4845 C.ar           1 <1>                0.0000
      7 C7          29.9680  37.3214  36.8698 C.ar           1 <1>                0.0000
      8 C8          30.9638  36.5655  37.4668 C.ar           1 <1>                0.0000
      9 C9          32.2979  36.4091  36.7835 C.3            1 <1>                0.0000
     10 C10         30.7394  35.9529  38.6894 C.ar           1 <1>                0.0000
     11 N11         31.7503  35.1909  39.2869 N.pl3          1 <1>                0.0000
     12 C12         29.5086  36.1000  39.3261 C.ar           1 <1>                0.0000
     13 O13         29.2839  35.5019  40.5237 O.3            1 <1>                0.0000
     14 H14         25.6790  36.3114  42.2189 H              1 <1>                0.0000
     15 H15         25.4875  37.8117  41.2805 H              1 <1>                0.0000
     16 H16         24.9378  36.2610  40.6015 H              1 <1>                0.0000
     17 H17         27.9728  38.0619  37.0133 H              1 <1>                0.0000
     18 H18         30.1519  37.7952  35.9169 H              1 <1>                0.0000
     19 H19         32.9656  37.2094  37.1026 H              1 <1>                0.0000
     20 H20         32.7321  35.4456  37.0504 H              1 <1>                0.0000
     21 H21         32.1609  36.4593  35.7033 H              1 <1>                0.0000
     22 H22         32.6081  35.0916  38.8453 H              1 <1>                0.0000
     23 H23         31.5929  34.7623  40.1428 H              1 <1>                0.0000
     24 H24         30.0882  35.3137  41.0263 H              1 <1>                0.0000
@<TRIPOS>BOND
    1    1    2 1     
    2    1   14 1     
    3    1   15 1     
    4    1   16 1     
    5    2    3 1     
    6    3    4 2     
    7    3    5 1     
    8    5    6 ar    
    9    5   12 ar    
   10    6    7 ar    
   11    6   17 1     
   12    7    8 ar    
   13    7   18 1     
   14    8    9 1     
   15    8   10 ar    
   16    9   19 1     
   17    9   20 1     
   18    9   21 1     
   19   10   11 1     
   20   10   12 ar    
   21   11   22 1     
   22   11   23 1     
   23   12   13 1     
   24   13   24 1     
@<TRIPOS>SUBSTRUCTURE
      1 ****           1
@<TRIPOS>SET
DONOR_HYDROGENS      STATIC     ATOMS    <user>   **** ""
3 22 23 24
ATOM$RED        STATIC     ATOMS    COLORGROUP SYSTEM
3 22 23 24
@<TRIPOS>COMMENT
> <Gold.Version>
2022.2.0

> <Gold.Id.Protein>
1qkm|1qkm_protein|mol2

> <Gold.Protein.RotatedTorsions>
[  496  491  490  487 ] final -128.78 input  -89.99 | X-H torsion

> <Gold.Protein.ActiveResidues>
 MET295  LEU298  THR299  LEU301  ALA302  GLU305  TRP335  MET336  LEU339  MET340 
 GLY342  LEU343  ARG346  PHE356  ILE373  ILE376  PHE377  LEU380  LYS471  GLY472 
 MET473  HIS475  LEU476  LEU477  ASN478  MET479  VAL484  VAL487 

> <Gold.Protein.RotatedAtoms>
   37.0956   34.2380   40.7548 H   0  0  0  0  0  0  0  0  0  0  0  0  # atno 496  bound_to 491 

> <Gold.Score>
     Score     S(PLP)   S(hbond)     S(cho)   S(metal)  DE(clash)   DE(tors)     intcor
     39.86     -34.88       1.67       0.00       0.00       0.00       0.02       0.00

> <Gold.PLP.Fitness>
39.8577

> <Gold.PLP.PLP>
-34.8826

> <Gold.PLP.part.hbond>
-2.0000

> <Gold.PLP.part.metal>
0.0000

> <Gold.PLP.part.buried>
-2.7207

> <Gold.PLP.part.nonpolar>
-31.0862

> <Gold.PLP.part.repulsive>
0.2102

> <Gold.PLP.ligand.clash>
0.0000

> <Gold.PLP.ligand.torsion>
0.0194

> <Gold.PLP.Chemscore.Hbond>
1.6713

> <Gold.PLP.Chemscore.CHOScore>
0.0000

> <Gold.PLP.Chemscore.Metal>
0.0000

> <Gold.Chemscore.Hbonds>
donor molecule, donor type, donor heavy atom, donor atom, acceptor molecule, acceptor atom, score
      L1  H    11    23       P1   470  0.68
      L1  H    13    24       P1   470  0.99

> <Gold.PLP.Chemscore.Internal.Correction>
0.0001

