#       Name:                EN300-135851_i001
#       Creating user name   aseyller
#       Creation time:       Fri Apr 21 16:29:46 2023


#       File generated by GOLD software.
#

@<TRIPOS>MOLECULE
EN300-135851_i001|aminophenols|mol2|33|dock13
    24    24     1
SMALL
USER_CHARGES


@<TRIPOS>ATOM
      1 C1          33.2715  36.1020  37.2191 C.3            1 <1>                0.0000
      2 O2          31.9991  36.0756  37.9181 O.3            1 <1>                0.0000
      3 C3          31.0463  36.9253  37.4866 C.2            1 <1>                0.0000
      4 O4          31.2936  37.7137  36.5957 O.2            1 <1>                0.0000
      5 C5          29.7041  36.8983  38.0955 C.ar           1 <1>                0.0000
      6 C6          28.6807  37.6989  37.5769 C.ar           1 <1>                0.0000
      7 C7          27.4278  37.6716  38.1480 C.ar           1 <1>                0.0000
      8 C8          27.1719  36.8538  39.2366 C.ar           1 <1>                0.0000
      9 C9          25.7964  36.8333  39.8521 C.3            1 <1>                0.0000
     10 C10         28.1743  36.0542  39.7622 C.ar           1 <1>                0.0000
     11 N11         27.9085  35.2301  40.8620 N.pl3          1 <1>                0.0000
     12 C12         29.4457  36.0671  39.1918 C.ar           1 <1>                0.0000
     13 O13         30.4309  35.2857  39.7030 O.3            1 <1>                0.0000
     14 H14         33.9465  35.3718  37.6656 H              1 <1>                0.0000
     15 H15         33.1142  35.8568  36.1688 H              1 <1>                0.0000
     16 H16         33.7089  37.0972  37.2983 H              1 <1>                0.0000
     17 H17         28.8734  38.3390  36.7287 H              1 <1>                0.0000
     18 H18         26.6404  38.2913  37.7450 H              1 <1>                0.0000
     19 H19         25.1919  36.0681  39.3652 H              1 <1>                0.0000
     20 H20         25.8776  36.6099  40.9158 H              1 <1>                0.0000
     21 H21         25.3249  37.8072  39.7203 H              1 <1>                0.0000
     22 H22         27.0225  35.2186  41.2565 H              1 <1>                0.0000
     23 H23         28.6103  34.6704  41.2296 H              1 <1>                0.0000
     24 H24         30.6949  35.5236  40.6023 H              1 <1>                0.0000
@<TRIPOS>BOND
    1    1    2 1     
    2    1   14 1     
    3    1   15 1     
    4    1   16 1     
    5    2    3 1     
    6    3    4 2     
    7    3    5 1     
    8    5    6 ar    
    9    5   12 ar    
   10    6    7 ar    
   11    6   17 1     
   12    7    8 ar    
   13    7   18 1     
   14    8    9 1     
   15    8   10 ar    
   16    9   19 1     
   17    9   20 1     
   18    9   21 1     
   19   10   11 1     
   20   10   12 ar    
   21   11   22 1     
   22   11   23 1     
   23   12   13 1     
   24   13   24 1     
@<TRIPOS>SUBSTRUCTURE
      1 ****           1
@<TRIPOS>SET
DONOR_HYDROGENS      STATIC     ATOMS    <user>   **** ""
3 22 23 24
ATOM$RED        STATIC     ATOMS    COLORGROUP SYSTEM
3 22 23 24
@<TRIPOS>COMMENT
> <Gold.Version>
2022.2.0

> <Gold.Id.Protein>
1qkm|1qkm_protein|mol2

> <Gold.Protein.RotatedTorsions>
[  496  491  490  487 ] final   71.87 input  -89.99 | X-H torsion

> <Gold.Protein.ActiveResidues>
 MET295  LEU298  THR299  LEU301  ALA302  GLU305  TRP335  MET336  LEU339  MET340 
 GLY342  LEU343  ARG346  PHE356  ILE373  ILE376  PHE377  LEU380  LYS471  GLY472 
 MET473  HIS475  LEU476  LEU477  ASN478  MET479  VAL484  VAL487 

> <Gold.Protein.RotatedAtoms>
   36.6540   33.1795   42.2137 H   0  0  0  0  0  0  0  0  0  0  0  0  # atno 496  bound_to 491 

> <Gold.Score>
     Score     S(PLP)   S(hbond)     S(cho)   S(metal)  DE(clash)   DE(tors)     intcor
     40.43     -37.69       0.93       0.00       0.00       0.00       0.03       0.00

> <Gold.PLP.Fitness>
40.4262

> <Gold.PLP.PLP>
-37.6938

> <Gold.PLP.part.hbond>
-1.0000

> <Gold.PLP.part.metal>
0.0000

> <Gold.PLP.part.buried>
-4.5670

> <Gold.PLP.part.nonpolar>
-32.8071

> <Gold.PLP.part.repulsive>
0.0880

> <Gold.PLP.ligand.clash>
0.0000

> <Gold.PLP.ligand.torsion>
0.0258

> <Gold.PLP.Chemscore.Hbond>
0.9280

> <Gold.PLP.Chemscore.CHOScore>
0.0000

> <Gold.PLP.Chemscore.Metal>
0.0000

> <Gold.Chemscore.Hbonds>
donor molecule, donor type, donor heavy atom, donor atom, acceptor molecule, acceptor atom, score
      L1  H    13    24       P1   470  0.93

> <Gold.PLP.Chemscore.Internal.Correction>
0.0001

