#       Name:                EN300-135851_i001
#       Creating user name   aseyller
#       Creation time:       Fri Apr 21 16:29:42 2023


#       File generated by GOLD software.
#

@<TRIPOS>MOLECULE
EN300-135851_i001|aminophenols|mol2|33|dock7
    24    24     1
SMALL
USER_CHARGES


@<TRIPOS>ATOM
      1 C1          31.5442  37.8780  35.1900 C.3            1 <1>                0.0000
      2 O2          30.7886  37.3677  36.3199 O.3            1 <1>                0.0000
      3 C3          29.6781  38.0462  36.6698 C.2            1 <1>                0.0000
      4 O4          29.3687  39.0561  36.0691 O.2            1 <1>                0.0000
      5 C5          28.8389  37.5632  37.7813 C.ar           1 <1>                0.0000
      6 C6          27.4549  37.7664  37.7569 C.ar           1 <1>                0.0000
      7 C7          26.6735  37.3140  38.7969 C.ar           1 <1>                0.0000
      8 C8          27.2498  36.6565  39.8715 C.ar           1 <1>                0.0000
      9 C9          26.3833  36.1666  41.0030 C.3            1 <1>                0.0000
     10 C10         28.6191  36.4467  39.9110 C.ar           1 <1>                0.0000
     11 N11         29.1945  35.7812  40.9998 N.pl3          1 <1>                0.0000
     12 C12         29.4221  36.8939  38.8637 C.ar           1 <1>                0.0000
     13 O13         30.7638  36.6908  38.8976 O.3            1 <1>                0.0000
     14 H14         32.4112  37.2410  35.0152 H              1 <1>                0.0000
     15 H15         30.9119  37.8825  34.3022 H              1 <1>                0.0000
     16 H16         31.8769  38.8936  35.4042 H              1 <1>                0.0000
     17 H17         26.9991  38.2785  36.9224 H              1 <1>                0.0000
     18 H18         25.6055  37.4730  38.7747 H              1 <1>                0.0000
     19 H19         26.0510  35.1501  40.7923 H              1 <1>                0.0000
     20 H20         26.9564  36.1766  41.9302 H              1 <1>                0.0000
     21 H21         25.5158  36.8186  41.1049 H              1 <1>                0.0000
     22 H22         28.6348  35.4668  41.7269 H              1 <1>                0.0000
     23 H23         30.1529  35.6344  41.0271 H              1 <1>                0.0000
     24 H24         31.2645  37.2710  38.3079 H              1 <1>                0.0000
@<TRIPOS>BOND
    1    1    2 1     
    2    1   14 1     
    3    1   15 1     
    4    1   16 1     
    5    2    3 1     
    6    3    4 2     
    7    3    5 1     
    8    5    6 ar    
    9    5   12 ar    
   10    6    7 ar    
   11    6   17 1     
   12    7    8 ar    
   13    7   18 1     
   14    8    9 1     
   15    8   10 ar    
   16    9   19 1     
   17    9   20 1     
   18    9   21 1     
   19   10   11 1     
   20   10   12 ar    
   21   11   22 1     
   22   11   23 1     
   23   12   13 1     
   24   13   24 1     
@<TRIPOS>SUBSTRUCTURE
      1 ****           1
@<TRIPOS>SET
DONOR_HYDROGENS      STATIC     ATOMS    <user>   **** ""
3 22 23 24
ATOM$RED        STATIC     ATOMS    COLORGROUP SYSTEM
3 22 23 24
@<TRIPOS>COMMENT
> <Gold.Version>
2022.2.0

> <Gold.Id.Protein>
1qkm|1qkm_protein|mol2

> <Gold.Protein.RotatedTorsions>
[  496  491  490  487 ] final  -77.81 input  -89.99 | X-H torsion

> <Gold.Protein.ActiveResidues>
 MET295  LEU298  THR299  LEU301  ALA302  GLU305  TRP335  MET336  LEU339  MET340 
 GLY342  LEU343  ARG346  PHE356  ILE373  ILE376  PHE377  LEU380  LYS471  GLY472 
 MET473  HIS475  LEU476  LEU477  ASN478  MET479  VAL484  VAL487 

> <Gold.Protein.RotatedAtoms>
   36.6463   34.7143   41.2344 H   0  0  0  0  0  0  0  0  0  0  0  0  # atno 496  bound_to 491 

> <Gold.Score>
     Score     S(PLP)   S(hbond)     S(cho)   S(metal)  DE(clash)   DE(tors)     intcor
     39.42     -37.34       0.98       0.00       0.00       0.00       0.43       0.00

> <Gold.PLP.Fitness>
39.4246

> <Gold.PLP.PLP>
-37.3360

> <Gold.PLP.part.hbond>
-1.0000

> <Gold.PLP.part.metal>
0.0000

> <Gold.PLP.part.buried>
-2.4995

> <Gold.PLP.part.nonpolar>
-33.7119

> <Gold.PLP.part.repulsive>
0.0663

> <Gold.PLP.ligand.clash>
0.0000

> <Gold.PLP.ligand.torsion>
0.4307

> <Gold.PLP.Chemscore.Hbond>
0.9833

> <Gold.PLP.Chemscore.CHOScore>
0.0000

> <Gold.PLP.Chemscore.Metal>
0.0000

> <Gold.Chemscore.Hbonds>
donor molecule, donor type, donor heavy atom, donor atom, acceptor molecule, acceptor atom, score
      L1  H    11    23       P1   470  0.98

> <Gold.PLP.Chemscore.Internal.Correction>
0.0001

