#       Name:                EN300-135851_i001
#       Creating user name   aseyller
#       Creation time:       Fri Apr 21 16:29:44 2023


#       File generated by GOLD software.
#

@<TRIPOS>MOLECULE
EN300-135851_i001|aminophenols|mol2|33|dock10
    24    24     1
SMALL
USER_CHARGES


@<TRIPOS>ATOM
      1 C1          29.8925  39.3811  36.1832 C.3            1 <1>                0.0000
      2 O2          28.8477  38.8644  37.0490 O.3            1 <1>                0.0000
      3 C3          29.1642  37.8116  37.8285 C.2            1 <1>                0.0000
      4 O4          30.2387  37.2597  37.6971 O.2            1 <1>                0.0000
      5 C5          28.2067  37.3296  38.8403 C.ar           1 <1>                0.0000
      6 C6          26.8359  37.5541  38.6742 C.ar           1 <1>                0.0000
      7 C7          25.9438  37.1026  39.6213 C.ar           1 <1>                0.0000
      8 C8          26.3953  36.4248  40.7420 C.ar           1 <1>                0.0000
      9 C9          25.4085  35.9361  41.7709 C.3            1 <1>                0.0000
     10 C10         27.7499  36.1938  40.9216 C.ar           1 <1>                0.0000
     11 N11         28.1989  35.5080  42.0563 N.pl3          1 <1>                0.0000
     12 C12         28.6642  36.6399  39.9694 C.ar           1 <1>                0.0000
     13 O13         29.9920  36.4160  40.1407 O.3            1 <1>                0.0000
     14 H14         29.5064  40.2251  35.6117 H              1 <1>                0.0000
     15 H15         30.7374  39.7086  36.7889 H              1 <1>                0.0000
     16 H16         30.2181  38.5976  35.4990 H              1 <1>                0.0000
     17 H17         26.4770  38.0820  37.8030 H              1 <1>                0.0000
     18 H18         24.8862  37.2780  39.4897 H              1 <1>                0.0000
     19 H19         25.0858  34.9271  41.5142 H              1 <1>                0.0000
     20 H20         25.8816  35.9274  42.7528 H              1 <1>                0.0000
     21 H21         24.5444  36.6001  41.7897 H              1 <1>                0.0000
     22 H22         27.5620  35.1943  42.7171 H              1 <1>                0.0000
     23 H23         29.1471  35.3463  42.1816 H              1 <1>                0.0000
     24 H24         30.2120  35.9712  40.9706 H              1 <1>                0.0000
@<TRIPOS>BOND
    1    1    2 1     
    2    1   14 1     
    3    1   15 1     
    4    1   16 1     
    5    2    3 1     
    6    3    4 2     
    7    3    5 1     
    8    5    6 ar    
    9    5   12 ar    
   10    6    7 ar    
   11    6   17 1     
   12    7    8 ar    
   13    7   18 1     
   14    8    9 1     
   15    8   10 ar    
   16    9   19 1     
   17    9   20 1     
   18    9   21 1     
   19   10   11 1     
   20   10   12 ar    
   21   11   22 1     
   22   11   23 1     
   23   12   13 1     
   24   13   24 1     
@<TRIPOS>SUBSTRUCTURE
      1 ****           1
@<TRIPOS>SET
DONOR_HYDROGENS      STATIC     ATOMS    <user>   **** ""
3 22 23 24
ATOM$RED        STATIC     ATOMS    COLORGROUP SYSTEM
3 22 23 24
@<TRIPOS>COMMENT
> <Gold.Version>
2022.2.0

> <Gold.Id.Protein>
1qkm|1qkm_protein|mol2

> <Gold.Protein.RotatedTorsions>
[  496  491  490  487 ] final   84.84 input  -89.99 | X-H torsion

> <Gold.Protein.ActiveResidues>
 MET295  LEU298  THR299  LEU301  ALA302  GLU305  TRP335  MET336  LEU339  MET340 
 GLY342  LEU343  ARG346  PHE356  ILE373  ILE376  PHE377  LEU380  LYS471  GLY472 
 MET473  HIS475  LEU476  LEU477  ASN478  MET479  VAL484  VAL487 

> <Gold.Protein.RotatedAtoms>
   36.7726   33.0591   42.0838 H   0  0  0  0  0  0  0  0  0  0  0  0  # atno 496  bound_to 491 

> <Gold.Score>
     Score     S(PLP)   S(hbond)     S(cho)   S(metal)  DE(clash)   DE(tors)     intcor
     41.80     -37.46       1.66       0.00       0.00       0.00       0.32       0.00

> <Gold.PLP.Fitness>
41.7956

> <Gold.PLP.PLP>
-37.4615

> <Gold.PLP.part.hbond>
-2.0000

> <Gold.PLP.part.metal>
0.0000

> <Gold.PLP.part.buried>
-0.4424

> <Gold.PLP.part.nonpolar>
-34.5330

> <Gold.PLP.part.repulsive>
0.0861

> <Gold.PLP.ligand.clash>
0.0000

> <Gold.PLP.ligand.torsion>
0.3228

> <Gold.PLP.Chemscore.Hbond>
1.6599

> <Gold.PLP.Chemscore.CHOScore>
0.0000

> <Gold.PLP.Chemscore.Metal>
0.0000

> <Gold.Chemscore.Hbonds>
donor molecule, donor type, donor heavy atom, donor atom, acceptor molecule, acceptor atom, score
      L1  H    11    22       P1   582  1.00
      L1  H    13    24       P1   470  0.66

> <Gold.PLP.Chemscore.Internal.Correction>
0.0001

