#       Name:                EN300-135851_i001
#       Creating user name   aseyller
#       Creation time:       Fri Apr 21 16:29:39 2023


#       File generated by GOLD software.
#

@<TRIPOS>MOLECULE
EN300-135851_i001|aminophenols|mol2|33|dock3
    24    24     1
SMALL
USER_CHARGES


@<TRIPOS>ATOM
      1 C1          32.4924  36.3258  35.9276 C.3            1 <1>                0.0000
      2 O2          31.5548  36.2877  37.0356 O.3            1 <1>                0.0000
      3 C3          30.2998  36.7126  36.7898 C.2            1 <1>                0.0000
      4 O4          29.9960  37.0992  35.6787 O.2            1 <1>                0.0000
      5 C5          29.2956  36.7083  37.8690 C.ar           1 <1>                0.0000
      6 C6          27.9950  37.1598  37.6207 C.ar           1 <1>                0.0000
      7 C7          27.0590  37.1547  38.6310 C.ar           1 <1>                0.0000
      8 C8          27.3970  36.7038  39.8967 C.ar           1 <1>                0.0000
      9 C9          26.3633  36.7035  40.9933 C.3            1 <1>                0.0000
     10 C10         28.6808  36.2528  40.1592 C.ar           1 <1>                0.0000
     11 N11         29.0152  35.7984  41.4403 N.pl3          1 <1>                0.0000
     12 C12         29.6372  36.2470  39.1458 C.ar           1 <1>                0.0000
     13 O13         30.8961  35.8062  39.3979 O.3            1 <1>                0.0000
     14 H14         33.4631  35.9579  36.2602 H              1 <1>                0.0000
     15 H15         32.1236  35.6966  35.1176 H              1 <1>                0.0000
     16 H16         32.5946  37.3514  35.5732 H              1 <1>                0.0000
     17 H17         27.7248  37.5129  36.6365 H              1 <1>                0.0000
     18 H18         26.0560  37.5043  38.4357 H              1 <1>                0.0000
     19 H19         25.8339  35.7507  40.9932 H              1 <1>                0.0000
     20 H20         26.8547  36.8460  41.9558 H              1 <1>                0.0000
     21 H21         25.6539  37.5134  40.8241 H              1 <1>                0.0000
     22 H22         28.3483  35.7991  42.1445 H              1 <1>                0.0000
     23 H23         29.9138  35.4826  41.6237 H              1 <1>                0.0000
     24 H24         31.0242  35.4756  40.2975 H              1 <1>                0.0000
@<TRIPOS>BOND
    1    1    2 1     
    2    1   14 1     
    3    1   15 1     
    4    1   16 1     
    5    2    3 1     
    6    3    4 2     
    7    3    5 1     
    8    5    6 ar    
    9    5   12 ar    
   10    6    7 ar    
   11    6   17 1     
   12    7    8 ar    
   13    7   18 1     
   14    8    9 1     
   15    8   10 ar    
   16    9   19 1     
   17    9   20 1     
   18    9   21 1     
   19   10   11 1     
   20   10   12 ar    
   21   11   22 1     
   22   11   23 1     
   23   12   13 1     
   24   13   24 1     
@<TRIPOS>SUBSTRUCTURE
      1 ****           1
@<TRIPOS>SET
DONOR_HYDROGENS      STATIC     ATOMS    <user>   **** ""
3 22 23 24
ATOM$RED        STATIC     ATOMS    COLORGROUP SYSTEM
3 22 23 24
@<TRIPOS>COMMENT
> <Gold.Version>
2022.2.0

> <Gold.Id.Protein>
1qkm|1qkm_protein|mol2

> <Gold.Protein.RotatedTorsions>
[  496  491  490  487 ] final  161.92 input  -89.99 | X-H torsion

> <Gold.Protein.ActiveResidues>
 MET295  LEU298  THR299  LEU301  ALA302  GLU305  TRP335  MET336  LEU339  MET340 
 GLY342  LEU343  ARG346  PHE356  ILE373  ILE376  PHE377  LEU380  LYS471  GLY472 
 MET473  HIS475  LEU476  LEU477  ASN478  MET479  VAL484  VAL487 

> <Gold.Protein.RotatedAtoms>
   37.3015   33.2271   41.0478 H   0  0  0  0  0  0  0  0  0  0  0  0  # atno 496  bound_to 491 

> <Gold.Score>
     Score     S(PLP)   S(hbond)     S(cho)   S(metal)  DE(clash)   DE(tors)     intcor
     43.06     -37.09       2.00       0.00       0.00       0.03       0.00       0.00

> <Gold.PLP.Fitness>
43.0623

> <Gold.PLP.PLP>
-37.0933

> <Gold.PLP.part.hbond>
-2.0000

> <Gold.PLP.part.metal>
0.0000

> <Gold.PLP.part.buried>
-3.3248

> <Gold.PLP.part.nonpolar>
-31.5942

> <Gold.PLP.part.repulsive>
0.0980

> <Gold.PLP.ligand.clash>
0.0304

> <Gold.PLP.ligand.torsion>
0.0003

> <Gold.PLP.Chemscore.Hbond>
2.0000

> <Gold.PLP.Chemscore.CHOScore>
0.0000

> <Gold.PLP.Chemscore.Metal>
0.0000

> <Gold.Chemscore.Hbonds>
donor molecule, donor type, donor heavy atom, donor atom, acceptor molecule, acceptor atom, score
      L1  H    11    23       P1   470  1.00
      L1  H    13    24       P1   470  1.00

> <Gold.PLP.Chemscore.Internal.Correction>
0.0001

