#       Name:                EN300-260988_i003
#       Creating user name   fsindt
#       Creation time:       Tue Feb 28 10:35:42 2023


#       File generated by GOLD software.
#

@<TRIPOS>MOLECULE
EN300-260988_i003|amine_1|mol2|3993|dock4
    27    26     1
SMALL
USER_CHARGES


@<TRIPOS>ATOM
      1 C1          -4.1925 -11.0974   9.9307 C.3            1 <1>                0.0000
      2 C2          -3.2491  -9.9390   9.6004 C.3            1 <1>                0.0000
      3 C3          -1.8015 -10.3797   9.8273 C.3            1 <1>                0.0000
      4 C4          -1.5524 -10.5603  11.3260 C.3            1 <1>                0.0000
      5 C5          -1.5530 -11.7058   9.1055 C.3            1 <1>                0.0000
      6 C6          -0.0470 -11.9351   8.9644 C.3            1 <1>                0.0000
      7 N7           0.4702 -11.1229   7.8548 N.4            1 <1>                1.0000
      8 C8           0.2191 -13.4148   8.6806 C.3            1 <1>                0.0000
      9 O9          -0.3294 -13.7618   7.4075 O.3            1 <1>                0.0000
     10 H10         -4.0602 -11.3878  10.9730 H              1 <1>                0.0000
     11 H11         -5.2237 -10.7834   9.7691 H              1 <1>                0.0000
     12 H12         -3.9656 -11.9460   9.2854 H              1 <1>                0.0000
     13 H13         -3.3813  -9.6485   8.5583 H              1 <1>                0.0000
     14 H14         -3.4758  -9.0904  10.2458 H              1 <1>                0.0000
     15 H15         -1.1249  -9.6204   9.4353 H              1 <1>                0.0000
     16 H16         -2.2290 -11.3197  11.7179 H              1 <1>                0.0000
     17 H17         -0.5212 -10.8742  11.4876 H              1 <1>                0.0000
     18 H18         -1.7294  -9.6157  11.8402 H              1 <1>                0.0000
     19 H19         -1.9923 -12.5206   9.6811 H              1 <1>                0.0000
     20 H20         -2.0098 -11.6721   8.1164 H              1 <1>                0.0000
     21 H21          0.4527 -11.6470   9.8892 H              1 <1>                0.0000
     22 H22          1.2939 -13.5961   8.6747 H              1 <1>                0.0000
     23 H23         -0.2478 -14.0230   9.4553 H              1 <1>                0.0000
     24 H24         -0.2441 -11.0240   7.1490 H              1 <1>                0.0000
     25 H25          0.7317 -10.2112   8.1988 H              1 <1>                0.0000
     26 H26          1.2781 -11.5759   7.4547 H              1 <1>                0.0000
     27 H27         -0.3839 -13.0215   6.7877 H              1 <1>                0.0000
@<TRIPOS>BOND
    1    1    2 1     
    2    1   10 1     
    3    1   11 1     
    4    1   12 1     
    5    2    3 1     
    6    2   13 1     
    7    2   14 1     
    8    3    4 1     
    9    3    5 1     
   10    3   15 1     
   11    4   16 1     
   12    4   17 1     
   13    4   18 1     
   14    5    6 1     
   15    5   19 1     
   16    5   20 1     
   17    6    7 1     
   18    6    8 1     
   19    6   21 1     
   20    7   24 1     
   21    7   25 1     
   22    7   26 1     
   23    8    9 1     
   24    8   22 1     
   25    8   23 1     
   26    9   27 1     
@<TRIPOS>SUBSTRUCTURE
      1 ****           1
@<TRIPOS>SET
DONOR_HYDROGENS      STATIC     ATOMS    <user>   **** ""
4 24 25 26 27
ATOM$RED        STATIC     ATOMS    COLORGROUP SYSTEM
4 24 25 26 27
@<TRIPOS>COMMENT
> <Gold.Version>
2022.2.0

> <Gold.Id.Protein>
3pbl|protein|mol2

> <Gold.Protein.RotatedTorsions>
[ 1303 1298 1297 1294 ] final -176.55 input  179.99 | X-H torsion
[ 2461 2456 2455 2452 ] final    8.18 input   30.03 | X-H torsion
[ 2515 2510 2509 2506 ] final  -27.76 input  -89.99 | X-H torsion
[ 3721 3712 3711 3710 ] final  -51.63 input -179.91 | X-H torsion
[ 3841 3832 3831 3830 ] final  -58.93 input -179.91 | X-H torsion
[ 3767 3762 3761 3758 ] final  -67.82 input  -89.99 | X-H torsion
[ 2472 2467 2466 2463 ] final -172.30 input  -89.97 | X-H torsion

> <Gold.Protein.ActiveResidues>
 VAL82   VAL86   LEU89   PHE106  VAL107  ASP110  VAL111  MET112  CYS114  THR115 
 CYS181  SER182  ILE183  PHE188  VAL189  ILE190  SER192  SER193  SER196  TRP342 
 PHE345  PHE346  HIS349  VAL350  TYR365  THR369  GLY372  TYR373 

> <Gold.Protein.RotatedAtoms>
    4.8359   -8.8307    4.6505 H   0  0  0  0  0  0  0  0  0  0  0  0  # atno 1303 bound_to 1298
    1.1700   -7.9511    7.0386 H   0  0  0  0  0  0  0  0  0  0  0  0  # atno 2461 bound_to 2456
   -5.2688   -5.4135    9.1156 H   0  0  0  0  0  0  0  0  0  0  0  0  # atno 2472 bound_to 2467
    2.7094   -7.9892    4.3925 H   0  0  0  0  0  0  0  0  0  0  0  0  # atno 2515 bound_to 2510
   -2.7397  -17.4398   14.7302 H   0  0  0  0  0  0  0  0  0  0  0  0  # atno 3721 bound_to 3712
   -5.4186  -22.0069   10.9180 H   0  0  0  0  0  0  0  0  0  0  0  0  # atno 3767 bound_to 3762
    1.6081  -19.8216    9.0426 H   0  0  0  0  0  0  0  0  0  0  0  0  # atno 3841 bound_to 3832
    4.0556  -10.2651    4.6643 LP  0  0  0  0  0  0  0  0  0  0  0  0  # atno 4297 bound_to 1298
    3.4704   -9.0257    3.7766 LP  0  0  0  0  0  0  0  0  0  0  0  0  # atno 4298 bound_to 1298
    0.4939   -9.1142    7.9645 LP  0  0  0  0  0  0  0  0  0  0  0  0  # atno 4299 bound_to 2456
    2.0738   -8.7427    8.1448 LP  0  0  0  0  0  0  0  0  0  0  0  0  # atno 4300 bound_to 2456
    2.5477   -9.2484    5.4191 LP  0  0  0  0  0  0  0  0  0  0  0  0  # atno 4301 bound_to 2510
    2.0394   -7.7617    5.8640 LP  0  0  0  0  0  0  0  0  0  0  0  0  # atno 4302 bound_to 2510
   -3.5613  -16.6025   13.6339 LP  0  0  0  0  0  0  0  0  0  0  0  0  # atno 4306 bound_to 3712
   -2.8033  -17.9893   13.2229 LP  0  0  0  0  0  0  0  0  0  0  0  0  # atno 4307 bound_to 3712
    2.9381  -20.1598    8.2102 LP  0  0  0  0  0  0  0  0  0  0  0  0  # atno 4314 bound_to 3832
    2.4337  -21.1486    9.4079 LP  0  0  0  0  0  0  0  0  0  0  0  0  # atno 4315 bound_to 3832
   -4.0307  -22.6299   11.5116 LP  0  0  0  0  0  0  0  0  0  0  0  0  # atno 4318 bound_to 3762
   -4.6784  -23.2381   10.1415 LP  0  0  0  0  0  0  0  0  0  0  0  0  # atno 4319 bound_to 3762
   -4.7679   -4.8374    7.6722 LP  0  0  0  0  0  0  0  0  0  0  0  0  # atno 4320 bound_to 2467
   -3.6803   -5.1427    8.8514 LP  0  0  0  0  0  0  0  0  0  0  0  0  # atno 4321 bound_to 2467

> <Gold.Score>
     Score     S(PLP)   S(hbond)     S(cho)   S(metal)  DE(clash)   DE(tors)     intcor
     40.13     -37.85       1.00       0.00       0.00       0.00       0.36       0.01

> <Gold.PLP.Fitness>
40.1278

> <Gold.PLP.PLP>
-37.8455

> <Gold.PLP.part.hbond>
-1.0000

> <Gold.PLP.part.metal>
0.0000

> <Gold.PLP.part.buried>
-4.0176

> <Gold.PLP.part.nonpolar>
-33.2640

> <Gold.PLP.part.repulsive>
0.0000

> <Gold.PLP.ligand.clash>
0.0000

> <Gold.PLP.ligand.torsion>
0.3621

> <Gold.PLP.Chemscore.Hbond>
1.0000

> <Gold.PLP.Chemscore.CHOScore>
0.0000

> <Gold.PLP.Chemscore.Metal>
0.0000

> <Gold.Chemscore.Hbonds>
donor molecule, donor type, donor heavy atom, donor atom, acceptor molecule, acceptor atom, score
      L1  H     7    25       P1  2456  1.00

> <Gold.PLP.Chemscore.Internal.Correction>
0.0064

