#       Name:                EN300-260988_i003
#       Creating user name   fsindt
#       Creation time:       Tue Feb 28 10:35:39 2023


#       File generated by GOLD software.
#

@<TRIPOS>MOLECULE
EN300-260988_i003|amine_1|mol2|3993|dock1
    27    26     1
SMALL
USER_CHARGES


@<TRIPOS>ATOM
      1 C1          -2.8384 -10.4956   9.8832 C.3            1 <1>                0.0000
      2 C2          -1.8036 -11.3580  10.6086 C.3            1 <1>                0.0000
      3 C3          -1.1202 -12.2879   9.6039 C.3            1 <1>                0.0000
      4 C4          -0.3364 -11.4539   8.5887 C.3            1 <1>                0.0000
      5 C5          -0.1619 -13.2229  10.3445 C.3            1 <1>                0.0000
      6 C6           0.1106 -14.4589   9.4849 C.3            1 <1>                0.0000
      7 N7           0.6973 -15.5160  10.3194 N.4            1 <1>                1.0000
      8 C8           1.0850 -14.0951   8.3628 C.3            1 <1>                0.0000
      9 O9           1.6452 -15.2890   7.8127 O.3            1 <1>                0.0000
     10 H10         -3.5851 -11.1388   9.4174 H              1 <1>                0.0000
     11 H11         -3.3252  -9.8332  10.5990 H              1 <1>                0.0000
     12 H12         -2.3423  -9.9006   9.1166 H              1 <1>                0.0000
     13 H13         -1.0570 -10.7149  11.0745 H              1 <1>                0.0000
     14 H14         -2.2997 -11.9532  11.3753 H              1 <1>                0.0000
     15 H15         -1.8746 -12.8784   9.0841 H              1 <1>                0.0000
     16 H16          0.4180 -10.8634   9.1085 H              1 <1>                0.0000
     17 H17          0.1504 -12.1163   7.8729 H              1 <1>                0.0000
     18 H18         -1.0191 -10.7879   8.0611 H              1 <1>                0.0000
     19 H19          0.7756 -12.7020  10.5394 H              1 <1>                0.0000
     20 H20         -0.6107 -13.5291  11.2894 H              1 <1>                0.0000
     21 H21         -0.8248 -14.8143   9.0528 H              1 <1>                0.0000
     22 H22          0.5537 -13.5501   7.5827 H              1 <1>                0.0000
     23 H23          1.8833 -13.4702   8.7634 H              1 <1>                0.0000
     24 H24         -0.0122 -16.1955  10.5496 H              1 <1>                0.0000
     25 H25          1.4443 -15.9679   9.8137 H              1 <1>                0.0000
     26 H26          1.0627 -15.1106  11.1680 H              1 <1>                0.0000
     27 H27          1.9374 -15.9286   8.4766 H              1 <1>                0.0000
@<TRIPOS>BOND
    1    1    2 1     
    2    1   10 1     
    3    1   11 1     
    4    1   12 1     
    5    2    3 1     
    6    2   13 1     
    7    2   14 1     
    8    3    4 1     
    9    3    5 1     
   10    3   15 1     
   11    4   16 1     
   12    4   17 1     
   13    4   18 1     
   14    5    6 1     
   15    5   19 1     
   16    5   20 1     
   17    6    7 1     
   18    6    8 1     
   19    6   21 1     
   20    7   24 1     
   21    7   25 1     
   22    7   26 1     
   23    8    9 1     
   24    8   22 1     
   25    8   23 1     
   26    9   27 1     
@<TRIPOS>SUBSTRUCTURE
      1 ****           1
@<TRIPOS>SET
DONOR_HYDROGENS      STATIC     ATOMS    <user>   **** ""
4 24 25 26 27
ATOM$RED        STATIC     ATOMS    COLORGROUP SYSTEM
4 24 25 26 27
@<TRIPOS>COMMENT
> <Gold.Version>
2022.2.0

> <Gold.Id.Protein>
3pbl|protein|mol2

> <Gold.Protein.RotatedTorsions>
[ 1303 1298 1297 1294 ] final   -2.90 input  179.99 | X-H torsion
[ 2461 2456 2455 2452 ] final   -6.60 input   30.03 | X-H torsion
[ 2515 2510 2509 2506 ] final  -78.42 input  -89.99 | X-H torsion
[ 3721 3712 3711 3710 ] final   28.95 input -179.91 | X-H torsion
[ 3841 3832 3831 3830 ] final   48.26 input -179.91 | X-H torsion
[ 3767 3762 3761 3758 ] final  114.26 input  -89.99 | X-H torsion
[ 2472 2467 2466 2463 ] final  -25.51 input  -89.97 | X-H torsion

> <Gold.Protein.ActiveResidues>
 VAL82   VAL86   LEU89   PHE106  VAL107  ASP110  VAL111  MET112  CYS114  THR115 
 CYS181  SER182  ILE183  PHE188  VAL189  ILE190  SER192  SER193  SER196  TRP342 
 PHE345  PHE346  HIS349  VAL350  TYR365  THR369  GLY372  TYR373 

> <Gold.Protein.RotatedAtoms>
    3.3722   -9.8341    4.0228 H   0  0  0  0  0  0  0  0  0  0  0  0  # atno 1303 bound_to 1298
    0.9398   -8.0273    7.0344 H   0  0  0  0  0  0  0  0  0  0  0  0  # atno 2461 bound_to 2456
   -3.6456   -4.9924    8.4427 H   0  0  0  0  0  0  0  0  0  0  0  0  # atno 2472 bound_to 2467
    2.8349   -8.7786    4.4987 H   0  0  0  0  0  0  0  0  0  0  0  0  # atno 2515 bound_to 2510
   -2.4808  -18.0336   13.8162 H   0  0  0  0  0  0  0  0  0  0  0  0  # atno 3721 bound_to 3712
   -3.9860  -23.2294   10.8242 H   0  0  0  0  0  0  0  0  0  0  0  0  # atno 3767 bound_to 3762
    2.3103  -20.9012    9.5745 H   0  0  0  0  0  0  0  0  0  0  0  0  # atno 3841 bound_to 3832
    4.2728   -8.4756    4.1208 LP  0  0  0  0  0  0  0  0  0  0  0  0  # atno 4297 bound_to 1298
    4.7174   -9.8114    4.9481 LP  0  0  0  0  0  0  0  0  0  0  0  0  # atno 4298 bound_to 1298
    0.6518   -9.2138    8.1191 LP  0  0  0  0  0  0  0  0  0  0  0  0  # atno 4299 bound_to 2456
    2.1460   -8.5668    7.9944 LP  0  0  0  0  0  0  0  0  0  0  0  0  # atno 4300 bound_to 2456
    2.2063   -8.8118    6.0052 LP  0  0  0  0  0  0  0  0  0  0  0  0  # atno 4301 bound_to 2510
    2.2554   -7.4085    5.1716 LP  0  0  0  0  0  0  0  0  0  0  0  0  # atno 4302 bound_to 2510
   -3.2407  -16.9863   14.7667 LP  0  0  0  0  0  0  0  0  0  0  0  0  # atno 4306 bound_to 3712
   -3.4229  -16.9200   13.1453 LP  0  0  0  0  0  0  0  0  0  0  0  0  # atno 4307 bound_to 3712
    1.5397  -19.7741    8.7307 LP  0  0  0  0  0  0  0  0  0  0  0  0  # atno 4314 bound_to 3832
    3.0209  -20.2871    8.2729 LP  0  0  0  0  0  0  0  0  0  0  0  0  # atno 4315 bound_to 3832
   -5.3719  -22.6463   10.1869 LP  0  0  0  0  0  0  0  0  0  0  0  0  # atno 4318 bound_to 3762
   -4.7691  -21.9996   11.5599 LP  0  0  0  0  0  0  0  0  0  0  0  0  # atno 4319 bound_to 3762
   -4.9110   -5.4620    9.3616 LP  0  0  0  0  0  0  0  0  0  0  0  0  # atno 4320 bound_to 2467
   -5.1602   -4.9391    7.8348 LP  0  0  0  0  0  0  0  0  0  0  0  0  # atno 4321 bound_to 2467

> <Gold.Score>
     Score     S(PLP)   S(hbond)     S(cho)   S(metal)  DE(clash)   DE(tors)     intcor
     39.26     -31.22       3.00       0.00       0.00       0.00       0.48       0.01

> <Gold.PLP.Fitness>
39.2637

> <Gold.PLP.PLP>
-31.2196

> <Gold.PLP.part.hbond>
-2.8468

> <Gold.PLP.part.metal>
0.0000

> <Gold.PLP.part.buried>
-2.9848

> <Gold.PLP.part.nonpolar>
-26.3877

> <Gold.PLP.part.repulsive>
0.0000

> <Gold.PLP.ligand.clash>
0.0000

> <Gold.PLP.ligand.torsion>
0.4838

> <Gold.PLP.Chemscore.Hbond>
3.0000

> <Gold.PLP.Chemscore.CHOScore>
0.0000

> <Gold.PLP.Chemscore.Metal>
0.0000

> <Gold.Chemscore.Hbonds>
donor molecule, donor type, donor heavy atom, donor atom, acceptor molecule, acceptor atom, score
      L1  H     7    25       P1  1227  2.00
      L1  H     9    27       P1  1227  1.00

> <Gold.PLP.Chemscore.Internal.Correction>
0.0117

