#       Name:                EN300-260988_i003
#       Creating user name   fsindt
#       Creation time:       Tue Feb 28 10:35:41 2023


#       File generated by GOLD software.
#

@<TRIPOS>MOLECULE
EN300-260988_i003|amine_1|mol2|3993|dock3
    27    26     1
SMALL
USER_CHARGES


@<TRIPOS>ATOM
      1 C1           1.4089 -12.1077   6.2293 C.3            1 <1>                0.0000
      2 C2           0.7946 -13.3386   6.8990 C.3            1 <1>                0.0000
      3 C3           1.0837 -13.2996   8.4010 C.3            1 <1>                0.0000
      4 C4           0.5557 -11.9891   8.9880 C.3            1 <1>                0.0000
      5 C5           0.3910 -14.4803   9.0845 C.3            1 <1>                0.0000
      6 C6           0.9081 -14.6145  10.5181 C.3            1 <1>                0.0000
      7 N7           2.3257 -14.9993  10.4934 N.4            1 <1>                1.0000
      8 C8           0.1013 -15.6869  11.2530 C.3            1 <1>                0.0000
      9 O9           0.2180 -16.9302  10.5584 O.3            1 <1>                0.0000
     10 H10          2.4867 -12.1056   6.3919 H              1 <1>                0.0000
     11 H11          1.2029 -12.1356   5.1593 H              1 <1>                0.0000
     12 H12          0.9747 -11.2053   6.6596 H              1 <1>                0.0000
     13 H13         -0.2832 -13.3408   6.7364 H              1 <1>                0.0000
     14 H14          1.2288 -14.2411   6.4688 H              1 <1>                0.0000
     15 H15          2.1592 -13.3644   8.5658 H              1 <1>                0.0000
     16 H16         -0.5198 -11.9243   8.8233 H              1 <1>                0.0000
     17 H17          0.7617 -11.9612  10.0580 H              1 <1>                0.0000
     18 H18          1.0492 -11.1480   8.5011 H              1 <1>                0.0000
     19 H19         -0.6855 -14.3100   9.1010 H              1 <1>                0.0000
     20 H20          0.6057 -15.3960   8.5335 H              1 <1>                0.0000
     21 H21          0.7995 -13.6607  11.0344 H              1 <1>                0.0000
     22 H22          0.4854 -15.7997  12.2667 H              1 <1>                0.0000
     23 H23         -0.9466 -15.3898  11.2924 H              1 <1>                0.0000
     24 H24          2.8483 -14.3236   9.9564 H              1 <1>                0.0000
     25 H25          2.6828 -15.0282  11.4366 H              1 <1>                0.0000
     26 H26          2.4194 -15.9104  10.0701 H              1 <1>                0.0000
     27 H27          1.1276 -17.1741  10.3383 H              1 <1>                0.0000
@<TRIPOS>BOND
    1    1    2 1     
    2    1   10 1     
    3    1   11 1     
    4    1   12 1     
    5    2    3 1     
    6    2   13 1     
    7    2   14 1     
    8    3    4 1     
    9    3    5 1     
   10    3   15 1     
   11    4   16 1     
   12    4   17 1     
   13    4   18 1     
   14    5    6 1     
   15    5   19 1     
   16    5   20 1     
   17    6    7 1     
   18    6    8 1     
   19    6   21 1     
   20    7   24 1     
   21    7   25 1     
   22    7   26 1     
   23    8    9 1     
   24    8   22 1     
   25    8   23 1     
   26    9   27 1     
@<TRIPOS>SUBSTRUCTURE
      1 ****           1
@<TRIPOS>SET
DONOR_HYDROGENS      STATIC     ATOMS    <user>   **** ""
4 24 25 26 27
ATOM$RED        STATIC     ATOMS    COLORGROUP SYSTEM
4 24 25 26 27
@<TRIPOS>COMMENT
> <Gold.Version>
2022.2.0

> <Gold.Id.Protein>
3pbl|protein|mol2

> <Gold.Protein.RotatedTorsions>
[ 1303 1298 1297 1294 ] final  117.12 input  179.99 | X-H torsion
[ 2461 2456 2455 2452 ] final  -99.66 input   30.03 | X-H torsion
[ 2515 2510 2509 2506 ] final  127.19 input  -89.99 | X-H torsion
[ 3721 3712 3711 3710 ] final  -90.37 input -179.91 | X-H torsion
[ 3841 3832 3831 3830 ] final  -15.32 input -179.91 | X-H torsion
[ 3767 3762 3761 3758 ] final   85.87 input  -89.99 | X-H torsion
[ 2472 2467 2466 2463 ] final   71.81 input  -89.97 | X-H torsion

> <Gold.Protein.ActiveResidues>
 VAL82   VAL86   LEU89   PHE106  VAL107  ASP110  VAL111  MET112  CYS114  THR115 
 CYS181  SER182  ILE183  PHE188  VAL189  ILE190  SER192  SER193  SER196  TRP342 
 PHE345  PHE346  HIS349  VAL350  TYR365  THR369  GLY372  TYR373 

> <Gold.Protein.RotatedAtoms>
    4.7172   -9.8109    4.9484 H   0  0  0  0  0  0  0  0  0  0  0  0  # atno 1303 bound_to 1298
    0.4006   -9.0065    7.8244 H   0  0  0  0  0  0  0  0  0  0  0  0  # atno 2461 bound_to 2456
   -4.8330   -4.8500    7.6851 H   0  0  0  0  0  0  0  0  0  0  0  0  # atno 2472 bound_to 2467
    2.0571   -8.2813    6.0881 H   0  0  0  0  0  0  0  0  0  0  0  0  # atno 2515 bound_to 2510
   -3.0276  -16.9447   14.6827 H   0  0  0  0  0  0  0  0  0  0  0  0  # atno 3721 bound_to 3712
   -4.2385  -23.3342   10.4512 H   0  0  0  0  0  0  0  0  0  0  0  0  # atno 3767 bound_to 3762
    1.6276  -20.3064    9.4646 H   0  0  0  0  0  0  0  0  0  0  0  0  # atno 3841 bound_to 3832
    3.3724   -9.8346    4.0224 LP  0  0  0  0  0  0  0  0  0  0  0  0  # atno 4297 bound_to 1298
    4.2724   -8.4756    4.1205 LP  0  0  0  0  0  0  0  0  0  0  0  0  # atno 4298 bound_to 1298
    1.9730   -8.8810    8.2479 LP  0  0  0  0  0  0  0  0  0  0  0  0  # atno 4299 bound_to 2456
    1.3639   -7.9207    7.0759 LP  0  0  0  0  0  0  0  0  0  0  0  0  # atno 4300 bound_to 2456
    2.4913   -7.5594    4.6895 LP  0  0  0  0  0  0  0  0  0  0  0  0  # atno 4301 bound_to 2510
    2.7485   -9.1585    4.8972 LP  0  0  0  0  0  0  0  0  0  0  0  0  # atno 4302 bound_to 2510
   -3.4089  -16.9479   13.1231 LP  0  0  0  0  0  0  0  0  0  0  0  0  # atno 4306 bound_to 3712
   -2.6234  -18.2155   13.7885 LP  0  0  0  0  0  0  0  0  0  0  0  0  # atno 4307 bound_to 3712
    2.3763  -19.7255    8.1692 LP  0  0  0  0  0  0  0  0  0  0  0  0  # atno 4314 bound_to 3832
    2.9728  -21.0229    8.9614 LP  0  0  0  0  0  0  0  0  0  0  0  0  # atno 4315 bound_to 3832
   -5.5071  -22.3060   10.4693 LP  0  0  0  0  0  0  0  0  0  0  0  0  # atno 4318 bound_to 3762
   -4.3816  -22.2351   11.6504 LP  0  0  0  0  0  0  0  0  0  0  0  0  # atno 4319 bound_to 3762
   -3.6619   -5.1188    8.7908 LP  0  0  0  0  0  0  0  0  0  0  0  0  # atno 4320 bound_to 2467
   -5.2221   -5.4247    9.1631 LP  0  0  0  0  0  0  0  0  0  0  0  0  # atno 4321 bound_to 2467

> <Gold.Score>
     Score     S(PLP)   S(hbond)     S(cho)   S(metal)  DE(clash)   DE(tors)     intcor
     39.34     -30.53       3.00       0.00       0.00       0.00       0.10       0.01

> <Gold.PLP.Fitness>
39.3373

> <Gold.PLP.PLP>
-30.5276

> <Gold.PLP.part.hbond>
-2.0000

> <Gold.PLP.part.metal>
0.0000

> <Gold.PLP.part.buried>
-3.6258

> <Gold.PLP.part.nonpolar>
-25.1589

> <Gold.PLP.part.repulsive>
0.0573

> <Gold.PLP.ligand.clash>
0.0000

> <Gold.PLP.ligand.torsion>
0.0984

> <Gold.PLP.Chemscore.Hbond>
3.0000

> <Gold.PLP.Chemscore.CHOScore>
0.0000

> <Gold.PLP.Chemscore.Metal>
0.0000

> <Gold.Chemscore.Hbonds>
donor molecule, donor type, donor heavy atom, donor atom, acceptor molecule, acceptor atom, score
      L1  H     7    26       P1  1227  2.00
      L1  H     9    27       P1  1227  1.00

> <Gold.PLP.Chemscore.Internal.Correction>
0.0064

