#       Name:                EN300-260988_i003
#       Creating user name   fsindt
#       Creation time:       Tue Feb 28 10:35:57 2023


#       File generated by GOLD software.
#

@<TRIPOS>MOLECULE
EN300-260988_i003|amine_1|mol2|3993|dock17
    27    26     1
SMALL
USER_CHARGES


@<TRIPOS>ATOM
      1 C1          -1.5999 -10.9335  10.6404 C.3            1 <1>                0.0000
      2 C2          -1.6836 -11.7015   9.3198 C.3            1 <1>                0.0000
      3 C3          -0.5091 -12.6773   9.2220 C.3            1 <1>                0.0000
      4 C4           0.7865 -11.8949   8.9981 C.3            1 <1>                0.0000
      5 C5          -0.4028 -13.4792  10.5208 C.3            1 <1>                0.0000
      6 C6           0.7854 -14.4389  10.4317 C.3            1 <1>                0.0000
      7 N7           0.6306 -15.3018   9.2528 N.4            1 <1>                1.0000
      8 C8           0.8384 -15.3033  11.6930 C.3            1 <1>                0.0000
      9 O9           2.0529 -16.0561  11.7038 O.3            1 <1>                0.0000
     10 H10         -0.6624 -10.3787  10.6793 H              1 <1>                0.0000
     11 H11         -2.4366 -10.2384  10.7101 H              1 <1>                0.0000
     12 H12         -1.6410 -11.6362  11.4726 H              1 <1>                0.0000
     13 H13         -2.6210 -12.2562   9.2809 H              1 <1>                0.0000
     14 H14         -1.6423 -10.9988   8.4876 H              1 <1>                0.0000
     15 H15         -0.6713 -13.3585   8.3867 H              1 <1>                0.0000
     16 H16          0.9487 -11.2138   9.8335 H              1 <1>                0.0000
     17 H17          1.6232 -12.5901   8.9284 H              1 <1>                0.0000
     18 H18          0.7108 -11.3237   8.0729 H              1 <1>                0.0000
     19 H19         -0.2567 -12.7968  11.3581 H              1 <1>                0.0000
     20 H20         -1.3196 -14.0490  10.6720 H              1 <1>                0.0000
     21 H21          1.7089 -13.8667  10.3443 H              1 <1>                0.0000
     22 H22          0.8001 -14.6629  12.5742 H              1 <1>                0.0000
     23 H23         -0.0118 -15.9852  11.7021 H              1 <1>                0.0000
     24 H24          0.9768 -14.8208   8.4362 H              1 <1>                0.0000
     25 H25          1.1539 -16.1537   9.3886 H              1 <1>                0.0000
     26 H26         -0.3453 -15.5234   9.1242 H              1 <1>                0.0000
     27 H27          2.2577 -16.4846  10.8614 H              1 <1>                0.0000
@<TRIPOS>BOND
    1    1    2 1     
    2    1   10 1     
    3    1   11 1     
    4    1   12 1     
    5    2    3 1     
    6    2   13 1     
    7    2   14 1     
    8    3    4 1     
    9    3    5 1     
   10    3   15 1     
   11    4   16 1     
   12    4   17 1     
   13    4   18 1     
   14    5    6 1     
   15    5   19 1     
   16    5   20 1     
   17    6    7 1     
   18    6    8 1     
   19    6   21 1     
   20    7   24 1     
   21    7   25 1     
   22    7   26 1     
   23    8    9 1     
   24    8   22 1     
   25    8   23 1     
   26    9   27 1     
@<TRIPOS>SUBSTRUCTURE
      1 ****           1
@<TRIPOS>SET
DONOR_HYDROGENS      STATIC     ATOMS    <user>   **** ""
4 24 25 26 27
ATOM$RED        STATIC     ATOMS    COLORGROUP SYSTEM
4 24 25 26 27
@<TRIPOS>COMMENT
> <Gold.Version>
2022.2.0

> <Gold.Id.Protein>
3pbl|protein|mol2

> <Gold.Protein.RotatedTorsions>
[ 1303 1298 1297 1294 ] final  104.58 input  179.99 | X-H torsion
[ 2461 2456 2455 2452 ] final   36.93 input   30.03 | X-H torsion
[ 2515 2510 2509 2506 ] final  137.79 input  -89.99 | X-H torsion
[ 3721 3712 3711 3710 ] final -147.20 input -179.91 | X-H torsion
[ 3841 3832 3831 3830 ] final  179.45 input -179.91 | X-H torsion
[ 3767 3762 3761 3758 ] final  -11.98 input  -89.99 | X-H torsion
[ 2472 2467 2466 2463 ] final -142.39 input  -89.97 | X-H torsion

> <Gold.Protein.ActiveResidues>
 VAL82   VAL86   LEU89   PHE106  VAL107  ASP110  VAL111  MET112  CYS114  THR115 
 CYS181  SER182  ILE183  PHE188  VAL189  ILE190  SER192  SER193  SER196  TRP342 
 PHE345  PHE346  HIS349  VAL350  TYR365  THR369  GLY372  TYR373 

> <Gold.Protein.RotatedAtoms>
    4.5901   -9.9708    4.9222 H   0  0  0  0  0  0  0  0  0  0  0  0  # atno 1303 bound_to 1298
    1.6183   -7.9282    7.1722 H   0  0  0  0  0  0  0  0  0  0  0  0  # atno 2461 bound_to 2456
   -4.8630   -5.4639    9.3793 H   0  0  0  0  0  0  0  0  0  0  0  0  # atno 2472 bound_to 2467
    2.0908   -8.4519    6.0954 H   0  0  0  0  0  0  0  0  0  0  0  0  # atno 2515 bound_to 2510
   -3.3205  -16.5347   14.0303 H   0  0  0  0  0  0  0  0  0  0  0  0  # atno 3721 bound_to 3712
   -5.4169  -22.5684   10.2365 H   0  0  0  0  0  0  0  0  0  0  0  0  # atno 3767 bound_to 3762
    2.9625  -20.0563    8.4141 H   0  0  0  0  0  0  0  0  0  0  0  0  # atno 3841 bound_to 3832
    3.3345   -9.6562    3.9268 LP  0  0  0  0  0  0  0  0  0  0  0  0  # atno 4297 bound_to 1298
    4.4374   -8.4941    4.2424 LP  0  0  0  0  0  0  0  0  0  0  0  0  # atno 4298 bound_to 1298
    0.3356   -8.8313    7.6267 LP  0  0  0  0  0  0  0  0  0  0  0  0  # atno 4299 bound_to 2456
    1.7840   -9.0484    8.3491 LP  0  0  0  0  0  0  0  0  0  0  0  0  # atno 4300 bound_to 2456
    2.4168   -7.4794    4.8251 LP  0  0  0  0  0  0  0  0  0  0  0  0  # atno 4301 bound_to 2510
    2.7892   -9.0678    4.7543 LP  0  0  0  0  0  0  0  0  0  0  0  0  # atno 4302 bound_to 2510
   -2.9647  -17.7378   13.0285 LP  0  0  0  0  0  0  0  0  0  0  0  0  # atno 4306 bound_to 3712
   -2.7294  -17.8989   14.6364 LP  0  0  0  0  0  0  0  0  0  0  0  0  # atno 4307 bound_to 3712
    2.3651  -21.1367    9.4397 LP  0  0  0  0  0  0  0  0  0  0  0  0  # atno 4314 bound_to 3832
    1.4421  -19.9005    8.9043 LP  0  0  0  0  0  0  0  0  0  0  0  0  # atno 4315 bound_to 3832
   -4.6820  -22.0399   11.5957 LP  0  0  0  0  0  0  0  0  0  0  0  0  # atno 4318 bound_to 3762
   -4.0287  -23.2668   10.7386 LP  0  0  0  0  0  0  0  0  0  0  0  0  # atno 4319 bound_to 3762
   -5.1991   -4.9542    7.8647 LP  0  0  0  0  0  0  0  0  0  0  0  0  # atno 4320 bound_to 2467
   -3.6548   -4.9755    8.3953 LP  0  0  0  0  0  0  0  0  0  0  0  0  # atno 4321 bound_to 2467

> <Gold.Score>
     Score     S(PLP)   S(hbond)     S(cho)   S(metal)  DE(clash)   DE(tors)     intcor
     37.04     -28.24       3.00       0.00       0.00       0.00       0.10       0.01

> <Gold.PLP.Fitness>
37.0401

> <Gold.PLP.PLP>
-28.2433

> <Gold.PLP.part.hbond>
-2.0000

> <Gold.PLP.part.metal>
0.0000

> <Gold.PLP.part.buried>
-2.7640

> <Gold.PLP.part.nonpolar>
-23.7231

> <Gold.PLP.part.repulsive>
0.0000

> <Gold.PLP.ligand.clash>
0.0000

> <Gold.PLP.ligand.torsion>
0.1048

> <Gold.PLP.Chemscore.Hbond>
3.0000

> <Gold.PLP.Chemscore.CHOScore>
0.0000

> <Gold.PLP.Chemscore.Metal>
0.0000

> <Gold.Chemscore.Hbonds>
donor molecule, donor type, donor heavy atom, donor atom, acceptor molecule, acceptor atom, score
      L1  H     7    25       P1  1227  2.00
      L1  H     9    27       P1  1227  1.00

> <Gold.PLP.Chemscore.Internal.Correction>
0.0064

