#       Name:                EN300-260988_i003
#       Creating user name   fsindt
#       Creation time:       Tue Feb 28 10:35:51 2023


#       File generated by GOLD software.
#

@<TRIPOS>MOLECULE
EN300-260988_i003|amine_1|mol2|3993|dock12
    27    26     1
SMALL
USER_CHARGES


@<TRIPOS>ATOM
      1 C1           1.1900 -12.9183   6.8737 C.3            1 <1>                0.0000
      2 C2           0.6690 -14.1369   7.6381 C.3            1 <1>                0.0000
      3 C3           0.9622 -13.9665   9.1301 C.3            1 <1>                0.0000
      4 C4           0.5142 -12.5752   9.5822 C.3            1 <1>                0.0000
      5 C5           0.2013 -15.0304   9.9241 C.3            1 <1>                0.0000
      6 C6           0.7603 -15.1020  11.3465 C.3            1 <1>                0.0000
      7 N7           2.2147 -15.3019  11.2916 N.4            1 <1>                1.0000
      8 C8           0.1125 -16.2714  12.0908 C.3            1 <1>                0.0000
      9 O9           0.4938 -17.5008  11.4702 O.3            1 <1>                0.0000
     10 H10          2.2657 -12.8274   7.0245 H              1 <1>                0.0000
     11 H11          0.9812 -13.0398   5.8107 H              1 <1>                0.0000
     12 H12          0.6944 -12.0198   7.2411 H              1 <1>                0.0000
     13 H13         -0.4066 -14.2279   7.4873 H              1 <1>                0.0000
     14 H14          1.1648 -15.0355   7.2708 H              1 <1>                0.0000
     15 H15          2.0322 -14.0786   9.3053 H              1 <1>                0.0000
     16 H16         -0.5557 -12.4632   9.4070 H              1 <1>                0.0000
     17 H17          0.7231 -12.4538  10.6451 H              1 <1>                0.0000
     18 H18          1.0563 -11.8174   9.0166 H              1 <1>                0.0000
     19 H19         -0.8561 -14.7683   9.9620 H              1 <1>                0.0000
     20 H20          0.3184 -15.9991   9.4384 H              1 <1>                0.0000
     21 H21          0.5410 -14.1717  11.8704 H              1 <1>                0.0000
     22 H22          0.4446 -16.2700  13.1289 H              1 <1>                0.0000
     23 H23         -0.9720 -16.1679  12.0560 H              1 <1>                0.0000
     24 H24          2.6331 -14.5750  10.7308 H              1 <1>                0.0000
     25 H25          2.5944 -15.2668  12.2257 H              1 <1>                0.0000
     26 H26          2.4151 -16.2014  10.8806 H              1 <1>                0.0000
     27 H27          1.2477 -17.4211  10.8698 H              1 <1>                0.0000
@<TRIPOS>BOND
    1    1    2 1     
    2    1   10 1     
    3    1   11 1     
    4    1   12 1     
    5    2    3 1     
    6    2   13 1     
    7    2   14 1     
    8    3    4 1     
    9    3    5 1     
   10    3   15 1     
   11    4   16 1     
   12    4   17 1     
   13    4   18 1     
   14    5    6 1     
   15    5   19 1     
   16    5   20 1     
   17    6    7 1     
   18    6    8 1     
   19    6   21 1     
   20    7   24 1     
   21    7   25 1     
   22    7   26 1     
   23    8    9 1     
   24    8   22 1     
   25    8   23 1     
   26    9   27 1     
@<TRIPOS>SUBSTRUCTURE
      1 ****           1
@<TRIPOS>SET
DONOR_HYDROGENS      STATIC     ATOMS    <user>   **** ""
4 24 25 26 27
ATOM$RED        STATIC     ATOMS    COLORGROUP SYSTEM
4 24 25 26 27
@<TRIPOS>COMMENT
> <Gold.Version>
2022.2.0

> <Gold.Id.Protein>
3pbl|protein|mol2

> <Gold.Protein.RotatedTorsions>
[ 1303 1298 1297 1294 ] final  116.30 input  179.99 | X-H torsion
[ 2461 2456 2455 2452 ] final   54.25 input   30.03 | X-H torsion
[ 2515 2510 2509 2506 ] final   -8.59 input  -89.99 | X-H torsion
[ 3721 3712 3711 3710 ] final  113.93 input -179.91 | X-H torsion
[ 3841 3832 3831 3830 ] final   21.64 input -179.91 | X-H torsion
[ 3767 3762 3761 3758 ] final   80.87 input  -89.99 | X-H torsion
[ 2472 2467 2466 2463 ] final   22.64 input  -89.97 | X-H torsion

> <Gold.Protein.ActiveResidues>
 VAL82   VAL86   LEU89   PHE106  VAL107  ASP110  VAL111  MET112  CYS114  THR115 
 CYS181  SER182  ILE183  PHE188  VAL189  ILE190  SER192  SER193  SER196  TRP342 
 PHE345  PHE346  HIS349  VAL350  TYR365  THR369  GLY372  TYR373 

> <Gold.Protein.RotatedAtoms>
    4.7096   -9.8222    4.9475 H   0  0  0  0  0  0  0  0  0  0  0  0  # atno 1303 bound_to 1298
    1.8504   -7.9961    7.3211 H   0  0  0  0  0  0  0  0  0  0  0  0  # atno 2461 bound_to 2456
   -4.0610   -4.8139    7.8206 H   0  0  0  0  0  0  0  0  0  0  0  0  # atno 2472 bound_to 2467
    2.5977   -7.7264    4.5231 H   0  0  0  0  0  0  0  0  0  0  0  0  # atno 2515 bound_to 2510
   -2.9635  -17.3129   13.0309 H   0  0  0  0  0  0  0  0  0  0  0  0  # atno 3721 bound_to 3712
   -4.2969  -23.3351   10.3933 H   0  0  0  0  0  0  0  0  0  0  0  0  # atno 3767 bound_to 3762
    1.9624  -20.7123    9.6207 H   0  0  0  0  0  0  0  0  0  0  0  0  # atno 3841 bound_to 3832
    3.3688   -9.8235    4.0156 LP  0  0  0  0  0  0  0  0  0  0  0  0  # atno 4297 bound_to 1298
    4.2835   -8.4755    4.1282 LP  0  0  0  0  0  0  0  0  0  0  0  0  # atno 4298 bound_to 1298
    0.3484   -8.6285    7.4285 LP  0  0  0  0  0  0  0  0  0  0  0  0  # atno 4299 bound_to 2456
    1.5392   -9.1834    8.3985 LP  0  0  0  0  0  0  0  0  0  0  0  0  # atno 4300 bound_to 2456
    2.6683   -9.2408    5.1293 LP  0  0  0  0  0  0  0  0  0  0  0  0  # atno 4301 bound_to 2510
    2.0306   -8.0322    6.0233 LP  0  0  0  0  0  0  0  0  0  0  0  0  # atno 4302 bound_to 2510
   -2.6474  -18.0777   14.4068 LP  0  0  0  0  0  0  0  0  0  0  0  0  # atno 4306 bound_to 3712
   -3.4589  -16.6606   14.4119 LP  0  0  0  0  0  0  0  0  0  0  0  0  # atno 4307 bound_to 3712
    1.8348  -19.6430    8.4306 LP  0  0  0  0  0  0  0  0  0  0  0  0  # atno 4314 bound_to 3832
    3.1277  -20.6365    8.5196 LP  0  0  0  0  0  0  0  0  0  0  0  0  # atno 4315 bound_to 3832
   -5.5112  -22.2520   10.5311 LP  0  0  0  0  0  0  0  0  0  0  0  0  # atno 4318 bound_to 3762
   -4.3191  -22.2883   11.6465 LP  0  0  0  0  0  0  0  0  0  0  0  0  # atno 4319 bound_to 3762
   -4.1470   -5.3744    9.3518 LP  0  0  0  0  0  0  0  0  0  0  0  0  # atno 4320 bound_to 2467
   -5.5088   -5.2052    8.4666 LP  0  0  0  0  0  0  0  0  0  0  0  0  # atno 4321 bound_to 2467

> <Gold.Score>
     Score     S(PLP)   S(hbond)     S(cho)   S(metal)  DE(clash)   DE(tors)     intcor
     37.09     -28.49       3.00       0.00       0.00       0.00       0.20       0.01

> <Gold.PLP.Fitness>
37.0899

> <Gold.PLP.PLP>
-28.4852

> <Gold.PLP.part.hbond>
-2.0000

> <Gold.PLP.part.metal>
0.0000

> <Gold.PLP.part.buried>
-3.1129

> <Gold.PLP.part.nonpolar>
-23.5043

> <Gold.PLP.part.repulsive>
0.0209

> <Gold.PLP.ligand.clash>
0.0000

> <Gold.PLP.ligand.torsion>
0.2009

> <Gold.PLP.Chemscore.Hbond>
3.0000

> <Gold.PLP.Chemscore.CHOScore>
0.0000

> <Gold.PLP.Chemscore.Metal>
0.0000

> <Gold.Chemscore.Hbonds>
donor molecule, donor type, donor heavy atom, donor atom, acceptor molecule, acceptor atom, score
      L1  H     7    26       P1  1227  2.00
      L1  H     9    27       P1  1227  1.00

> <Gold.PLP.Chemscore.Internal.Correction>
0.0064

