#       Name:                EN300-260988_i003
#       Creating user name   fsindt
#       Creation time:       Tue Feb 28 10:35:50 2023


#       File generated by GOLD software.
#

@<TRIPOS>MOLECULE
EN300-260988_i003|amine_1|mol2|3993|dock11
    27    26     1
SMALL
USER_CHARGES


@<TRIPOS>ATOM
      1 C1          -2.2156 -11.3743  10.0612 C.3            1 <1>                0.0000
      2 C2          -0.6978 -11.1946  10.1296 C.3            1 <1>                0.0000
      3 C3          -0.0197 -12.5657  10.0926 C.3            1 <1>                0.0000
      4 C4          -0.7028 -13.4995  11.0936 C.3            1 <1>                0.0000
      5 C5          -0.1356 -13.1542   8.6850 C.3            1 <1>                0.0000
      6 C6           0.3689 -14.5985   8.6930 C.3            1 <1>                0.0000
      7 N7           1.6786 -14.6560   9.3559 N.4            1 <1>                1.0000
      8 C8           0.5033 -15.0997   7.2536 C.3            1 <1>                0.0000
      9 O9           1.3068 -16.2812   7.2338 O.3            1 <1>                0.0000
     10 H10         -2.5499 -11.9680  10.9120 H              1 <1>                0.0000
     11 H11         -2.6987 -10.3975  10.0875 H              1 <1>                0.0000
     12 H12         -2.4796 -11.8854   9.1354 H              1 <1>                0.0000
     13 H13         -0.3635 -10.6009   9.2788 H              1 <1>                0.0000
     14 H14         -0.4337 -10.6836  11.0555 H              1 <1>                0.0000
     15 H15          1.0325 -12.4579  10.3557 H              1 <1>                0.0000
     16 H16         -1.7550 -13.6073  10.8304 H              1 <1>                0.0000
     17 H17         -0.2198 -14.4763  11.0674 H              1 <1>                0.0000
     18 H18         -0.6202 -13.0803  12.0964 H              1 <1>                0.0000
     19 H19         -1.1784 -13.1353   8.3681 H              1 <1>                0.0000
     20 H20          0.4651 -12.5632   7.9936 H              1 <1>                0.0000
     21 H21         -0.3392 -15.2277   9.2322 H              1 <1>                0.0000
     22 H22         -0.4851 -15.3258   6.8538 H              1 <1>                0.0000
     23 H23          0.9748 -14.3294   6.6433 H              1 <1>                0.0000
     24 H24          1.5859 -14.3452  10.3113 H              1 <1>                0.0000
     25 H25          2.0208 -15.6051   9.3426 H              1 <1>                0.0000
     26 H26          2.3286 -14.0573   8.8689 H              1 <1>                0.0000
     27 H27          1.5090 -16.6342   8.1111 H              1 <1>                0.0000
@<TRIPOS>BOND
    1    1    2 1     
    2    1   10 1     
    3    1   11 1     
    4    1   12 1     
    5    2    3 1     
    6    2   13 1     
    7    2   14 1     
    8    3    4 1     
    9    3    5 1     
   10    3   15 1     
   11    4   16 1     
   12    4   17 1     
   13    4   18 1     
   14    5    6 1     
   15    5   19 1     
   16    5   20 1     
   17    6    7 1     
   18    6    8 1     
   19    6   21 1     
   20    7   24 1     
   21    7   25 1     
   22    7   26 1     
   23    8    9 1     
   24    8   22 1     
   25    8   23 1     
   26    9   27 1     
@<TRIPOS>SUBSTRUCTURE
      1 ****           1
@<TRIPOS>SET
DONOR_HYDROGENS      STATIC     ATOMS    <user>   **** ""
4 24 25 26 27
ATOM$RED        STATIC     ATOMS    COLORGROUP SYSTEM
4 24 25 26 27
@<TRIPOS>COMMENT
> <Gold.Version>
2022.2.0

> <Gold.Id.Protein>
3pbl|protein|mol2

> <Gold.Protein.RotatedTorsions>
[ 1303 1298 1297 1294 ] final    7.62 input  179.99 | X-H torsion
[ 2461 2456 2455 2452 ] final   88.54 input   30.03 | X-H torsion
[ 2515 2510 2509 2506 ] final   -4.82 input  -89.99 | X-H torsion
[ 3721 3712 3711 3710 ] final -169.09 input -179.91 | X-H torsion
[ 3841 3832 3831 3830 ] final -149.25 input -179.91 | X-H torsion
[ 3767 3762 3761 3758 ] final   -2.84 input  -89.99 | X-H torsion
[ 2472 2467 2466 2463 ] final   40.80 input  -89.97 | X-H torsion

> <Gold.Protein.ActiveResidues>
 VAL82   VAL86   LEU89   PHE106  VAL107  ASP110  VAL111  MET112  CYS114  THR115 
 CYS181  SER182  ILE183  PHE188  VAL189  ILE190  SER192  SER193  SER196  TRP342 
 PHE345  PHE346  HIS349  VAL350  TYR365  THR369  GLY372  TYR373 

> <Gold.Protein.RotatedAtoms>
    3.4317   -9.9672    4.1157 H   0  0  0  0  0  0  0  0  0  0  0  0  # atno 1303 bound_to 1298
    2.1328   -8.2821    7.7054 H   0  0  0  0  0  0  0  0  0  0  0  0  # atno 2461 bound_to 2456
   -4.3316   -4.7993    7.6974 H   0  0  0  0  0  0  0  0  0  0  0  0  # atno 2472 bound_to 2467
    2.5732   -7.6819    4.5585 H   0  0  0  0  0  0  0  0  0  0  0  0  # atno 2515 bound_to 2510
   -3.3371  -16.5567   13.7026 H   0  0  0  0  0  0  0  0  0  0  0  0  # atno 3721 bound_to 3712
   -5.3479  -22.6817   10.1657 H   0  0  0  0  0  0  0  0  0  0  0  0  # atno 3767 bound_to 3762
    2.6188  -19.7467    8.3498 H   0  0  0  0  0  0  0  0  0  0  0  0  # atno 3841 bound_to 3832
    4.1285   -8.4931    4.0273 LP  0  0  0  0  0  0  0  0  0  0  0  0  # atno 4297 bound_to 1298
    4.8023   -9.6608    4.9487 LP  0  0  0  0  0  0  0  0  0  0  0  0  # atno 4298 bound_to 1298
    0.6056   -8.2379    7.1280 LP  0  0  0  0  0  0  0  0  0  0  0  0  # atno 4299 bound_to 2456
    0.9996   -9.2881    8.3147 LP  0  0  0  0  0  0  0  0  0  0  0  0  # atno 4300 bound_to 2456
    2.6894   -9.2272    5.0725 LP  0  0  0  0  0  0  0  0  0  0  0  0  # atno 4301 bound_to 2510
    2.0341   -8.0904    6.0446 LP  0  0  0  0  0  0  0  0  0  0  0  0  # atno 4302 bound_to 2510
   -2.8004  -17.9935   13.2278 LP  0  0  0  0  0  0  0  0  0  0  0  0  # atno 4306 bound_to 3712
   -2.8745  -17.6178   14.8153 LP  0  0  0  0  0  0  0  0  0  0  0  0  # atno 4307 bound_to 3712
    2.7979  -21.1216    9.1582 LP  0  0  0  0  0  0  0  0  0  0  0  0  # atno 4314 bound_to 3832
    1.4064  -20.2732    9.2602 LP  0  0  0  0  0  0  0  0  0  0  0  0  # atno 4315 bound_to 3832
   -4.8098  -21.9833   11.5403 LP  0  0  0  0  0  0  0  0  0  0  0  0  # atno 4318 bound_to 3762
   -3.9699  -23.2101   10.8648 LP  0  0  0  0  0  0  0  0  0  0  0  0  # atno 4319 bound_to 3762
   -3.9077   -5.2917    9.1954 LP  0  0  0  0  0  0  0  0  0  0  0  0  # atno 4320 bound_to 2467
   -5.4776   -5.3025    8.7462 LP  0  0  0  0  0  0  0  0  0  0  0  0  # atno 4321 bound_to 2467

> <Gold.Score>
     Score     S(PLP)   S(hbond)     S(cho)   S(metal)  DE(clash)   DE(tors)     intcor
     38.36     -29.92       3.00       0.00       0.00       0.00       0.28       0.01

> <Gold.PLP.Fitness>
38.3620

> <Gold.PLP.PLP>
-29.9245

> <Gold.PLP.part.hbond>
-2.4620

> <Gold.PLP.part.metal>
0.0000

> <Gold.PLP.part.buried>
-2.5568

> <Gold.PLP.part.nonpolar>
-25.1929

> <Gold.PLP.part.repulsive>
0.0573

> <Gold.PLP.ligand.clash>
0.0000

> <Gold.PLP.ligand.torsion>
0.2844

> <Gold.PLP.Chemscore.Hbond>
3.0000

> <Gold.PLP.Chemscore.CHOScore>
0.0000

> <Gold.PLP.Chemscore.Metal>
0.0000

> <Gold.Chemscore.Hbonds>
donor molecule, donor type, donor heavy atom, donor atom, acceptor molecule, acceptor atom, score
      L1  H     7    25       P1  1227  2.00
      L1  H     9    27       P1  1227  1.00

> <Gold.PLP.Chemscore.Internal.Correction>
0.0064

