#       Name:                EN300-260988_i003
#       Creating user name   fsindt
#       Creation time:       Tue Feb 28 10:35:45 2023


#       File generated by GOLD software.
#

@<TRIPOS>MOLECULE
EN300-260988_i003|amine_1|mol2|3993|dock7
    27    26     1
SMALL
USER_CHARGES


@<TRIPOS>ATOM
      1 C1          -4.3202 -10.0422  10.1999 C.3            1 <1>                0.0000
      2 C2          -3.5747 -11.3237   9.8220 C.3            1 <1>                0.0000
      3 C3          -2.0706 -11.0459   9.7825 C.3            1 <1>                0.0000
      4 C4          -1.5647 -10.7750  11.2008 C.3            1 <1>                0.0000
      5 C5          -1.3425 -12.2612   9.2047 C.3            1 <1>                0.0000
      6 C6           0.0806 -11.8625   8.8088 C.3            1 <1>                0.0000
      7 N7           0.0275 -10.7978   7.7980 N.4            1 <1>                1.0000
      8 C8           0.8089 -13.0779   8.2316 C.3            1 <1>                0.0000
      9 O9           0.8990 -14.0972   9.2291 O.3            1 <1>                0.0000
     10 H10         -4.1128  -9.2695   9.4596 H              1 <1>                0.0000
     11 H11         -5.3917 -10.2402  10.2280 H              1 <1>                0.0000
     12 H12         -3.9873  -9.7041  11.1811 H              1 <1>                0.0000
     13 H13         -3.7821 -12.0964  10.5622 H              1 <1>                0.0000
     14 H14         -3.9075 -11.6618   8.8407 H              1 <1>                0.0000
     15 H15         -1.8782 -10.1753   9.1556 H              1 <1>                0.0000
     16 H16         -1.7570 -11.6456  11.8277 H              1 <1>                0.0000
     17 H17         -0.4931 -10.5770  11.1727 H              1 <1>                0.0000
     18 H18         -2.0833  -9.9091  11.6124 H              1 <1>                0.0000
     19 H19         -1.3031 -13.0515   9.9545 H              1 <1>                0.0000
     20 H20         -1.8770 -12.6209   8.3255 H              1 <1>                0.0000
     21 H21          0.6149 -11.5024   9.6879 H              1 <1>                0.0000
     22 H22          0.2565 -13.4582   7.3724 H              1 <1>                0.0000
     23 H23          1.8114 -12.7860   7.9189 H              1 <1>                0.0000
     24 H24         -0.9067 -10.4187   7.7575 H              1 <1>                0.0000
     25 H25          0.6769 -10.0664   8.0455 H              1 <1>                0.0000
     26 H26          0.2758 -11.1772   6.8966 H              1 <1>                0.0000
     27 H27          0.7498 -14.9914   8.8924 H              1 <1>                0.0000
@<TRIPOS>BOND
    1    1    2 1     
    2    1   10 1     
    3    1   11 1     
    4    1   12 1     
    5    2    3 1     
    6    2   13 1     
    7    2   14 1     
    8    3    4 1     
    9    3    5 1     
   10    3   15 1     
   11    4   16 1     
   12    4   17 1     
   13    4   18 1     
   14    5    6 1     
   15    5   19 1     
   16    5   20 1     
   17    6    7 1     
   18    6    8 1     
   19    6   21 1     
   20    7   24 1     
   21    7   25 1     
   22    7   26 1     
   23    8    9 1     
   24    8   22 1     
   25    8   23 1     
   26    9   27 1     
@<TRIPOS>SUBSTRUCTURE
      1 ****           1
@<TRIPOS>SET
DONOR_HYDROGENS      STATIC     ATOMS    <user>   **** ""
4 24 25 26 27
ATOM$RED        STATIC     ATOMS    COLORGROUP SYSTEM
4 24 25 26 27
@<TRIPOS>COMMENT
> <Gold.Version>
2022.2.0

> <Gold.Id.Protein>
3pbl|protein|mol2

> <Gold.Protein.RotatedTorsions>
[ 1303 1298 1297 1294 ] final   76.84 input  179.99 | X-H torsion
[ 2461 2456 2455 2452 ] final   21.08 input   30.03 | X-H torsion
[ 2515 2510 2509 2506 ] final   46.93 input  -89.99 | X-H torsion
[ 3721 3712 3711 3710 ] final -141.93 input -179.91 | X-H torsion
[ 3841 3832 3831 3830 ] final  -31.95 input -179.91 | X-H torsion
[ 3767 3762 3761 3758 ] final   80.74 input  -89.99 | X-H torsion
[ 2472 2467 2466 2463 ] final    2.16 input  -89.97 | X-H torsion

> <Gold.Protein.ActiveResidues>
 VAL82   VAL86   LEU89   PHE106  VAL107  ASP110  VAL111  MET112  CYS114  THR115 
 CYS181  SER182  ILE183  PHE188  VAL189  ILE190  SER192  SER193  SER196  TRP342 
 PHE345  PHE346  HIS349  VAL350  TYR365  THR369  GLY372  TYR373 

> <Gold.Protein.RotatedAtoms>
    4.2397  -10.2145    4.7732 H   0  0  0  0  0  0  0  0  0  0  0  0  # atno 1303 bound_to 1298
    1.3756   -7.9196    7.0789 H   0  0  0  0  0  0  0  0  0  0  0  0  # atno 2461 bound_to 2456
   -3.8183   -4.8681    8.0452 H   0  0  0  0  0  0  0  0  0  0  0  0  # atno 2472 bound_to 2467
    2.2226   -7.4146    5.2530 H   0  0  0  0  0  0  0  0  0  0  0  0  # atno 2515 bound_to 2510
   -3.3073  -16.5457   14.1082 H   0  0  0  0  0  0  0  0  0  0  0  0  # atno 3721 bound_to 3712
   -4.2985  -23.3350   10.3918 H   0  0  0  0  0  0  0  0  0  0  0  0  # atno 3767 bound_to 3762
    1.5672  -20.1080    9.3244 H   0  0  0  0  0  0  0  0  0  0  0  0  # atno 3841 bound_to 3832
    3.3838   -9.2267    3.7945 LP  0  0  0  0  0  0  0  0  0  0  0  0  # atno 4297 bound_to 1298
    4.7386   -8.6798    4.5238 LP  0  0  0  0  0  0  0  0  0  0  0  0  # atno 4298 bound_to 1298
    0.3964   -8.9993    7.8157 LP  0  0  0  0  0  0  0  0  0  0  0  0  # atno 4299 bound_to 2456
    1.9658   -8.8890    8.2533 LP  0  0  0  0  0  0  0  0  0  0  0  0  # atno 4300 bound_to 2456
    2.8358   -8.7014    4.4567 LP  0  0  0  0  0  0  0  0  0  0  0  0  # atno 4301 bound_to 2510
    2.2385   -8.8836    5.9656 LP  0  0  0  0  0  0  0  0  0  0  0  0  # atno 4302 bound_to 2510
   -3.0079  -17.6670   12.9987 LP  0  0  0  0  0  0  0  0  0  0  0  0  # atno 4306 bound_to 3712
   -2.7014  -17.9570   14.5762 LP  0  0  0  0  0  0  0  0  0  0  0  0  # atno 4307 bound_to 3712
    2.6179  -19.8570    8.1373 LP  0  0  0  0  0  0  0  0  0  0  0  0  # atno 4314 bound_to 3832
    2.8010  -21.1206    9.1553 LP  0  0  0  0  0  0  0  0  0  0  0  0  # atno 4315 bound_to 3832
   -5.5113  -22.2505   10.5328 LP  0  0  0  0  0  0  0  0  0  0  0  0  # atno 4318 bound_to 3762
   -4.3175  -22.2898   11.6463 LP  0  0  0  0  0  0  0  0  0  0  0  0  # atno 4319 bound_to 3762
   -4.4663   -5.4382    9.4314 LP  0  0  0  0  0  0  0  0  0  0  0  0  # atno 4320 bound_to 2467
   -5.4322   -5.0871    8.1624 LP  0  0  0  0  0  0  0  0  0  0  0  0  # atno 4321 bound_to 2467

> <Gold.Score>
     Score     S(PLP)   S(hbond)     S(cho)   S(metal)  DE(clash)   DE(tors)     intcor
     39.72     -37.04       0.99       0.00       0.00       0.00       0.15       0.01

> <Gold.PLP.Fitness>
39.7219

> <Gold.PLP.PLP>
-37.0426

> <Gold.PLP.part.hbond>
-1.0000

> <Gold.PLP.part.metal>
0.0000

> <Gold.PLP.part.buried>
-3.4857

> <Gold.PLP.part.nonpolar>
-33.1508

> <Gold.PLP.part.repulsive>
0.0185

> <Gold.PLP.ligand.clash>
0.0000

> <Gold.PLP.ligand.torsion>
0.1516

> <Gold.PLP.Chemscore.Hbond>
0.9920

> <Gold.PLP.Chemscore.CHOScore>
0.0000

> <Gold.PLP.Chemscore.Metal>
0.0000

> <Gold.Chemscore.Hbonds>
donor molecule, donor type, donor heavy atom, donor atom, acceptor molecule, acceptor atom, score
      L1  H     7    25       P1  2456  0.99

> <Gold.PLP.Chemscore.Internal.Correction>
0.0064

