#       Name:                EN300-260988_i003
#       Creating user name   fsindt
#       Creation time:       Tue Feb 28 10:35:40 2023


#       File generated by GOLD software.
#

@<TRIPOS>MOLECULE
EN300-260988_i003|amine_1|mol2|3993|dock2
    27    26     1
SMALL
USER_CHARGES


@<TRIPOS>ATOM
      1 C1          -4.0704 -11.3793   9.6051 C.3            1 <1>                0.0000
      2 C2          -3.1940 -10.3369  10.3024 C.3            1 <1>                0.0000
      3 C3          -1.7451 -10.8275  10.3336 C.3            1 <1>                0.0000
      4 C4          -1.5912 -11.8943  11.4195 C.3            1 <1>                0.0000
      5 C5          -1.3802 -11.4272   8.9741 C.3            1 <1>                0.0000
      6 C6           0.0781 -11.8893   8.9954 C.3            1 <1>                0.0000
      7 N7           0.9311 -10.7962   9.4809 N.4            1 <1>                1.0000
      8 C8           0.5091 -12.2828   7.5810 C.3            1 <1>                0.0000
      9 O9           0.8841 -11.1112   6.8540 O.3            1 <1>                0.0000
     10 H10         -4.0176 -12.3217  10.1503 H              1 <1>                0.0000
     11 H11         -5.1026 -11.0298   9.5828 H              1 <1>                0.0000
     12 H12         -3.7153 -11.5291   8.5855 H              1 <1>                0.0000
     13 H13         -3.2468  -9.3946   9.7573 H              1 <1>                0.0000
     14 H14         -3.5489 -10.1873  11.3220 H              1 <1>                0.0000
     15 H15         -1.0824  -9.9898  10.5507 H              1 <1>                0.0000
     16 H16         -2.2538 -12.7321  11.2023 H              1 <1>                0.0000
     17 H17         -0.5590 -12.2438  11.4418 H              1 <1>                0.0000
     18 H18         -1.8511 -11.4671  12.3880 H              1 <1>                0.0000
     19 H19         -2.0282 -12.2789   8.7670 H              1 <1>                0.0000
     20 H20         -1.5114 -10.6736   8.1976 H              1 <1>                0.0000
     21 H21          0.1772 -12.7491   9.6578 H              1 <1>                0.0000
     22 H22          1.3585 -12.9636   7.6362 H              1 <1>                0.0000
     23 H23         -0.3195 -12.7760   7.0728 H              1 <1>                0.0000
     24 H24          0.4670 -10.3187  10.2390 H              1 <1>                0.0000
     25 H25          1.8079 -11.1736   9.8077 H              1 <1>                0.0000
     26 H26          1.1042 -10.1456   8.7294 H              1 <1>                0.0000
     27 H27          1.0192 -10.3305   7.4086 H              1 <1>                0.0000
@<TRIPOS>BOND
    1    1    2 1     
    2    1   10 1     
    3    1   11 1     
    4    1   12 1     
    5    2    3 1     
    6    2   13 1     
    7    2   14 1     
    8    3    4 1     
    9    3    5 1     
   10    3   15 1     
   11    4   16 1     
   12    4   17 1     
   13    4   18 1     
   14    5    6 1     
   15    5   19 1     
   16    5   20 1     
   17    6    7 1     
   18    6    8 1     
   19    6   21 1     
   20    7   24 1     
   21    7   25 1     
   22    7   26 1     
   23    8    9 1     
   24    8   22 1     
   25    8   23 1     
   26    9   27 1     
@<TRIPOS>SUBSTRUCTURE
      1 ****           1
@<TRIPOS>SET
DONOR_HYDROGENS      STATIC     ATOMS    <user>   **** ""
4 24 25 26 27
ATOM$RED        STATIC     ATOMS    COLORGROUP SYSTEM
4 24 25 26 27
@<TRIPOS>COMMENT
> <Gold.Version>
2022.2.0

> <Gold.Id.Protein>
3pbl|protein|mol2

> <Gold.Protein.RotatedTorsions>
[ 1303 1298 1297 1294 ] final   71.60 input  179.99 | X-H torsion
[ 2461 2456 2455 2452 ] final   66.52 input   30.03 | X-H torsion
[ 2515 2510 2509 2506 ] final   58.95 input  -89.99 | X-H torsion
[ 3721 3712 3711 3710 ] final  -54.76 input -179.91 | X-H torsion
[ 3841 3832 3831 3830 ] final -102.08 input -179.91 | X-H torsion
[ 3767 3762 3761 3758 ] final -110.06 input  -89.99 | X-H torsion
[ 2472 2467 2466 2463 ] final  178.65 input  -89.97 | X-H torsion

> <Gold.Protein.ActiveResidues>
 VAL82   VAL86   LEU89   PHE106  VAL107  ASP110  VAL111  MET112  CYS114  THR115 
 CYS181  SER182  ILE183  PHE188  VAL189  ILE190  SER192  SER193  SER196  TRP342 
 PHE345  PHE346  HIS349  VAL350  TYR365  THR369  GLY372  TYR373 

> <Gold.Protein.RotatedAtoms>
    4.1679  -10.2398    4.7331 H   0  0  0  0  0  0  0  0  0  0  0  0  # atno 1303 bound_to 1298
    1.9827   -8.0780    7.4491 H   0  0  0  0  0  0  0  0  0  0  0  0  # atno 2461 bound_to 2456
   -5.3589   -5.3822    9.0014 H   0  0  0  0  0  0  0  0  0  0  0  0  # atno 2472 bound_to 2467
    2.1554   -7.4566    5.4337 H   0  0  0  0  0  0  0  0  0  0  0  0  # atno 2515 bound_to 2510
   -2.7619  -17.3994   14.7408 H   0  0  0  0  0  0  0  0  0  0  0  0  # atno 3721 bound_to 3712
   -4.9829  -21.9312   11.4339 H   0  0  0  0  0  0  0  0  0  0  0  0  # atno 3767 bound_to 3762
    1.9909  -19.5839    8.5928 H   0  0  0  0  0  0  0  0  0  0  0  0  # atno 3841 bound_to 3832
    3.4131   -9.1465    3.7837 LP  0  0  0  0  0  0  0  0  0  0  0  0  # atno 4297 bound_to 1298
    4.7812   -8.7347    4.5746 LP  0  0  0  0  0  0  0  0  0  0  0  0  # atno 4298 bound_to 1298
    0.4071   -8.4823    7.3029 LP  0  0  0  0  0  0  0  0  0  0  0  0  # atno 4299 bound_to 2456
    1.3483   -9.2477    8.3961 LP  0  0  0  0  0  0  0  0  0  0  0  0  # atno 4300 bound_to 2456
    2.8250   -8.5167    4.3879 LP  0  0  0  0  0  0  0  0  0  0  0  0  # atno 4301 bound_to 2510
    2.3165   -9.0262    5.8536 LP  0  0  0  0  0  0  0  0  0  0  0  0  # atno 4302 bound_to 2510
   -3.5564  -16.6188   13.5844 LP  0  0  0  0  0  0  0  0  0  0  0  0  # atno 4306 bound_to 3712
   -2.7826  -18.0197   13.2601 LP  0  0  0  0  0  0  0  0  0  0  0  0  # atno 4307 bound_to 3712
    3.1256  -20.7190    8.5948 LP  0  0  0  0  0  0  0  0  0  0  0  0  # atno 4314 bound_to 3832
    1.8040  -20.8639    9.5429 LP  0  0  0  0  0  0  0  0  0  0  0  0  # atno 4315 bound_to 3832
   -3.9194  -23.1063   11.0402 LP  0  0  0  0  0  0  0  0  0  0  0  0  # atno 4318 bound_to 3762
   -5.2252  -22.8374   10.0972 LP  0  0  0  0  0  0  0  0  0  0  0  0  # atno 4319 bound_to 3762
   -4.6211   -4.8165    7.6590 LP  0  0  0  0  0  0  0  0  0  0  0  0  # atno 4320 bound_to 2467
   -3.7370   -5.1948    8.9788 LP  0  0  0  0  0  0  0  0  0  0  0  0  # atno 4321 bound_to 2467

> <Gold.Score>
     Score     S(PLP)   S(hbond)     S(cho)   S(metal)  DE(clash)   DE(tors)     intcor
     42.97     -37.77       2.00       0.00       0.00       0.00       0.40       0.01

> <Gold.PLP.Fitness>
42.9708

> <Gold.PLP.PLP>
-37.7674

> <Gold.PLP.part.hbond>
-2.0000

> <Gold.PLP.part.metal>
0.0000

> <Gold.PLP.part.buried>
-3.4342

> <Gold.PLP.part.nonpolar>
-32.5584

> <Gold.PLP.part.repulsive>
0.0000

> <Gold.PLP.ligand.clash>
0.0000

> <Gold.PLP.ligand.torsion>
0.4042

> <Gold.PLP.Chemscore.Hbond>
2.0000

> <Gold.PLP.Chemscore.CHOScore>
0.0000

> <Gold.PLP.Chemscore.Metal>
0.0000

> <Gold.Chemscore.Hbonds>
donor molecule, donor type, donor heavy atom, donor atom, acceptor molecule, acceptor atom, score
      L1  H     7    26       P1  2456  1.00
      L1  H     9    27       P1  2456  1.00

> <Gold.PLP.Chemscore.Internal.Correction>
0.0117

