#       Name:                EN300-260988_i003
#       Creating user name   fsindt
#       Creation time:       Tue Feb 28 10:35:49 2023


#       File generated by GOLD software.
#

@<TRIPOS>MOLECULE
EN300-260988_i003|amine_1|mol2|3993|dock10
    27    26     1
SMALL
USER_CHARGES


@<TRIPOS>ATOM
      1 C1           1.4055 -12.0653   6.5325 C.3            1 <1>                0.0000
      2 C2           0.4796 -12.2526   7.7360 C.3            1 <1>                0.0000
      3 C3           0.2157 -13.7446   7.9490 C.3            1 <1>                0.0000
      4 C4          -0.1286 -14.3979   6.6091 C.3            1 <1>                0.0000
      5 C5           1.4663 -14.4055   8.5324 C.3            1 <1>                0.0000
      6 C6           1.4066 -14.3506  10.0602 C.3            1 <1>                0.0000
      7 N7           2.5999 -14.9988  10.6205 N.4            1 <1>                1.0000
      8 C8           0.1533 -15.0803  10.5481 C.3            1 <1>                0.0000
      9 O9           0.2100 -16.4488  10.1407 O.3            1 <1>                0.0000
     10 H10          0.9332 -12.4814   5.6425 H              1 <1>                0.0000
     11 H11          1.5935 -11.0023   6.3807 H              1 <1>                0.0000
     12 H12          2.3492 -12.5785   6.7167 H              1 <1>                0.0000
     13 H13          0.9518 -11.8364   8.6259 H              1 <1>                0.0000
     14 H14         -0.4642 -11.7394   7.5518 H              1 <1>                0.0000
     15 H15         -0.6178 -13.8711   8.6399 H              1 <1>                0.0000
     16 H16          0.7050 -14.2714   5.9183 H              1 <1>                0.0000
     17 H17         -0.3166 -15.4608   6.7608 H              1 <1>                0.0000
     18 H18         -1.0195 -13.9271   6.1936 H              1 <1>                0.0000
     19 H19          1.5128 -15.4450   8.2077 H              1 <1>                0.0000
     20 H20          2.3531 -13.8760   8.1841 H              1 <1>                0.0000
     21 H21          1.3713 -13.3109  10.3853 H              1 <1>                0.0000
     22 H22          0.1019 -15.0268  11.6355 H              1 <1>                0.0000
     23 H23         -0.7312 -14.6097  10.1188 H              1 <1>                0.0000
     24 H24          2.6730 -15.9383  10.2599 H              1 <1>                0.0000
     25 H25          3.4212 -14.4737  10.3602 H              1 <1>                0.0000
     26 H26          2.5250 -15.0293  11.6263 H              1 <1>                0.0000
     27 H27          1.0733 -16.8636  10.2742 H              1 <1>                0.0000
@<TRIPOS>BOND
    1    1    2 1     
    2    1   10 1     
    3    1   11 1     
    4    1   12 1     
    5    2    3 1     
    6    2   13 1     
    7    2   14 1     
    8    3    4 1     
    9    3    5 1     
   10    3   15 1     
   11    4   16 1     
   12    4   17 1     
   13    4   18 1     
   14    5    6 1     
   15    5   19 1     
   16    5   20 1     
   17    6    7 1     
   18    6    8 1     
   19    6   21 1     
   20    7   24 1     
   21    7   25 1     
   22    7   26 1     
   23    8    9 1     
   24    8   22 1     
   25    8   23 1     
   26    9   27 1     
@<TRIPOS>SUBSTRUCTURE
      1 ****           1
@<TRIPOS>SET
DONOR_HYDROGENS      STATIC     ATOMS    <user>   **** ""
4 24 25 26 27
ATOM$RED        STATIC     ATOMS    COLORGROUP SYSTEM
4 24 25 26 27
@<TRIPOS>COMMENT
> <Gold.Version>
2022.2.0

> <Gold.Id.Protein>
3pbl|protein|mol2

> <Gold.Protein.RotatedTorsions>
[ 1303 1298 1297 1294 ] final   38.64 input  179.99 | X-H torsion
[ 2461 2456 2455 2452 ] final   56.26 input   30.03 | X-H torsion
[ 2515 2510 2509 2506 ] final  -65.64 input  -89.99 | X-H torsion
[ 3721 3712 3711 3710 ] final  -73.86 input -179.91 | X-H torsion
[ 3841 3832 3831 3830 ] final -152.43 input -179.91 | X-H torsion
[ 3767 3762 3761 3758 ] final  118.43 input  -89.99 | X-H torsion
[ 2472 2467 2466 2463 ] final -165.48 input  -89.97 | X-H torsion

> <Gold.Protein.ActiveResidues>
 VAL82   VAL86   LEU89   PHE106  VAL107  ASP110  VAL111  MET112  CYS114  THR115 
 CYS181  SER182  ILE183  PHE188  VAL189  ILE190  SER192  SER193  SER196  TRP342 
 PHE345  PHE346  HIS349  VAL350  TYR365  THR369  GLY372  TYR373 

> <Gold.Protein.RotatedAtoms>
    3.7306  -10.2297    4.4253 H   0  0  0  0  0  0  0  0  0  0  0  0  # atno 1303 bound_to 1298
    1.8741   -8.0077    7.3410 H   0  0  0  0  0  0  0  0  0  0  0  0  # atno 2461 bound_to 2456
   -5.1894   -5.4324    9.1924 H   0  0  0  0  0  0  0  0  0  0  0  0  # atno 2472 bound_to 2467
    2.8312   -8.5884    4.4103 H   0  0  0  0  0  0  0  0  0  0  0  0  # atno 2515 bound_to 2510
   -2.9041  -17.1497   14.7505 H   0  0  0  0  0  0  0  0  0  0  0  0  # atno 3721 bound_to 3712
   -3.9626  -23.2006   10.8820 H   0  0  0  0  0  0  0  0  0  0  0  0  # atno 3767 bound_to 3762
    2.6593  -19.7725    8.3477 H   0  0  0  0  0  0  0  0  0  0  0  0  # atno 3841 bound_to 3832
    3.7196   -8.7102    3.8274 LP  0  0  0  0  0  0  0  0  0  0  0  0  # atno 4297 bound_to 1298
    4.9121   -9.1811    4.8388 LP  0  0  0  0  0  0  0  0  0  0  0  0  # atno 4298 bound_to 1298
    0.3553   -8.6044    7.4068 LP  0  0  0  0  0  0  0  0  0  0  0  0  # atno 4299 bound_to 2456
    1.5085   -9.1959    8.4002 LP  0  0  0  0  0  0  0  0  0  0  0  0  # atno 4300 bound_to 2456
    2.2859   -8.9750    5.8999 LP  0  0  0  0  0  0  0  0  0  0  0  0  # atno 4301 bound_to 2510
    2.1795   -7.4356    5.3654 LP  0  0  0  0  0  0  0  0  0  0  0  0  # atno 4302 bound_to 2510
   -3.4970  -16.7653   13.3088 LP  0  0  0  0  0  0  0  0  0  0  0  0  # atno 4306 bound_to 3712
   -2.6779  -18.1614   13.5245 LP  0  0  0  0  0  0  0  0  0  0  0  0  # atno 4307 bound_to 3712
    2.7592  -21.1334    9.1927 LP  0  0  0  0  0  0  0  0  0  0  0  0  # atno 4314 bound_to 3832
    1.3982  -20.2317    9.2280 LP  0  0  0  0  0  0  0  0  0  0  0  0  # atno 4315 bound_to 3832
   -5.3373  -22.6979   10.1578 LP  0  0  0  0  0  0  0  0  0  0  0  0  # atno 4318 bound_to 3762
   -4.8272  -21.9768   11.5313 LP  0  0  0  0  0  0  0  0  0  0  0  0  # atno 4319 bound_to 3762
   -4.8754   -4.8580    7.6965 LP  0  0  0  0  0  0  0  0  0  0  0  0  # atno 4320 bound_to 2467
   -3.6523   -5.1032    8.7503 LP  0  0  0  0  0  0  0  0  0  0  0  0  # atno 4321 bound_to 2467

> <Gold.Score>
     Score     S(PLP)   S(hbond)     S(cho)   S(metal)  DE(clash)   DE(tors)     intcor
     41.10     -33.03       3.00       0.00       0.00       0.00       0.47       0.01

> <Gold.PLP.Fitness>
41.1014

> <Gold.PLP.PLP>
-33.0261

> <Gold.PLP.part.hbond>
-2.0000

> <Gold.PLP.part.metal>
0.0000

> <Gold.PLP.part.buried>
-3.4279

> <Gold.PLP.part.nonpolar>
-27.8394

> <Gold.PLP.part.repulsive>
0.0645

> <Gold.PLP.ligand.clash>
0.0000

> <Gold.PLP.ligand.torsion>
0.4656

> <Gold.PLP.Chemscore.Hbond>
3.0000

> <Gold.PLP.Chemscore.CHOScore>
0.0000

> <Gold.PLP.Chemscore.Metal>
0.0000

> <Gold.Chemscore.Hbonds>
donor molecule, donor type, donor heavy atom, donor atom, acceptor molecule, acceptor atom, score
      L1  H     7    24       P1  1227  2.00
      L1  H     9    27       P1  1227  1.00

> <Gold.PLP.Chemscore.Internal.Correction>
0.0064

