#       Name:                EN300-260988_i003
#       Creating user name   fsindt
#       Creation time:       Tue Feb 28 10:35:55 2023


#       File generated by GOLD software.
#

@<TRIPOS>MOLECULE
EN300-260988_i003|amine_1|mol2|3993|dock15
    27    26     1
SMALL
USER_CHARGES


@<TRIPOS>ATOM
      1 C1          -3.7299 -10.0469   9.8782 C.3            1 <1>                0.0000
      2 C2          -3.0988 -11.2942  10.5000 C.3            1 <1>                0.0000
      3 C3          -1.6052 -11.3287  10.1696 C.3            1 <1>                0.0000
      4 C4          -0.9068 -10.1452  10.8421 C.3            1 <1>                0.0000
      5 C5          -0.9995 -12.6369  10.6823 C.3            1 <1>                0.0000
      6 C6           0.2220 -12.9996   9.8356 C.3            1 <1>                0.0000
      7 N7          -0.1508 -13.0032   8.4146 N.4            1 <1>                1.0000
      8 C8           0.7249 -14.3885  10.2345 C.3            1 <1>                0.0000
      9 O9           1.9043 -14.6999   9.4903 O.3            1 <1>                0.0000
     10 H10         -3.5977 -10.0735   8.7966 H              1 <1>                0.0000
     11 H11         -4.7940 -10.0224  10.1136 H              1 <1>                0.0000
     12 H12         -3.2479  -9.1563  10.2814 H              1 <1>                0.0000
     13 H13         -3.2311 -11.2677  11.5816 H              1 <1>                0.0000
     14 H14         -3.5807 -12.1848  10.0968 H              1 <1>                0.0000
     15 H15         -1.4704 -11.2646   9.0899 H              1 <1>                0.0000
     16 H16         -1.0415 -10.2094  11.9218 H              1 <1>                0.0000
     17 H17          0.1573 -10.1697  10.6067 H              1 <1>                0.0000
     18 H18         -1.3382  -9.2133  10.4768 H              1 <1>                0.0000
     19 H19         -0.6972 -12.5142  11.7224 H              1 <1>                0.0000
     20 H20         -1.7406 -13.4329  10.6108 H              1 <1>                0.0000
     21 H21          1.0106 -12.2659  10.0024 H              1 <1>                0.0000
     22 H22          0.9541 -14.3997  11.3000 H              1 <1>                0.0000
     23 H23         -0.0458 -15.1291  10.0207 H              1 <1>                0.0000
     24 H24         -1.1557 -12.9708   8.3305 H              1 <1>                0.0000
     25 H25          0.2511 -12.1974   7.9595 H              1 <1>                0.0000
     26 H26          0.1964 -13.8441   7.9781 H              1 <1>                0.0000
     27 H27          2.3120 -15.5424   9.7336 H              1 <1>                0.0000
@<TRIPOS>BOND
    1    1    2 1     
    2    1   10 1     
    3    1   11 1     
    4    1   12 1     
    5    2    3 1     
    6    2   13 1     
    7    2   14 1     
    8    3    4 1     
    9    3    5 1     
   10    3   15 1     
   11    4   16 1     
   12    4   17 1     
   13    4   18 1     
   14    5    6 1     
   15    5   19 1     
   16    5   20 1     
   17    6    7 1     
   18    6    8 1     
   19    6   21 1     
   20    7   24 1     
   21    7   25 1     
   22    7   26 1     
   23    8    9 1     
   24    8   22 1     
   25    8   23 1     
   26    9   27 1     
@<TRIPOS>SUBSTRUCTURE
      1 ****           1
@<TRIPOS>SET
DONOR_HYDROGENS      STATIC     ATOMS    <user>   **** ""
4 24 25 26 27
ATOM$RED        STATIC     ATOMS    COLORGROUP SYSTEM
4 24 25 26 27
@<TRIPOS>COMMENT
> <Gold.Version>
2022.2.0

> <Gold.Id.Protein>
3pbl|protein|mol2

> <Gold.Protein.RotatedTorsions>
[ 1303 1298 1297 1294 ] final  -96.54 input  179.99 | X-H torsion
[ 2461 2456 2455 2452 ] final -170.28 input   30.03 | X-H torsion
[ 2515 2510 2509 2506 ] final  -71.77 input  -89.99 | X-H torsion
[ 3721 3712 3711 3710 ] final  -20.79 input -179.91 | X-H torsion
[ 3841 3832 3831 3830 ] final  121.96 input -179.91 | X-H torsion
[ 3767 3762 3761 3758 ] final  149.86 input  -89.99 | X-H torsion
[ 2472 2467 2466 2463 ] final  159.77 input  -89.97 | X-H torsion

> <Gold.Protein.ActiveResidues>
 VAL82   VAL86   LEU89   PHE106  VAL107  ASP110  VAL111  MET112  CYS114  THR115 
 CYS181  SER182  ILE183  PHE188  VAL189  ILE190  SER192  SER193  SER196  TRP342 
 PHE345  PHE346  HIS349  VAL350  TYR365  THR369  GLY372  TYR373 

> <Gold.Protein.RotatedAtoms>
    3.9120   -8.5749    3.9092 H   0  0  0  0  0  0  0  0  0  0  0  0  # atno 1303 bound_to 1298
    1.2973   -9.2599    8.3905 H   0  0  0  0  0  0  0  0  0  0  0  0  # atno 2461 bound_to 2456
   -5.4818   -5.2981    8.7304 H   0  0  0  0  0  0  0  0  0  0  0  0  # atno 2472 bound_to 2467
    2.8354   -8.6819    4.4480 H   0  0  0  0  0  0  0  0  0  0  0  0  # atno 2515 bound_to 2510
   -2.5569  -17.7945   14.5003 H   0  0  0  0  0  0  0  0  0  0  0  0  # atno 3721 bound_to 3712
   -3.9185  -22.8989   11.2919 H   0  0  0  0  0  0  0  0  0  0  0  0  # atno 3767 bound_to 3762
    3.0905  -20.7070    8.9175 H   0  0  0  0  0  0  0  0  0  0  0  0  # atno 3841 bound_to 3832
    4.8861   -9.4178    4.9126 LP  0  0  0  0  0  0  0  0  0  0  0  0  # atno 4297 bound_to 1298
    3.5641  -10.1290    4.2699 LP  0  0  0  0  0  0  0  0  0  0  0  0  # atno 4298 bound_to 1298
    2.0117   -8.1037    7.4848 LP  0  0  0  0  0  0  0  0  0  0  0  0  # atno 4299 bound_to 2456
    0.4288   -8.4448    7.2730 LP  0  0  0  0  0  0  0  0  0  0  0  0  # atno 4300 bound_to 2456
    2.2465   -8.9001    5.9550 LP  0  0  0  0  0  0  0  0  0  0  0  0  # atno 4301 bound_to 2510
    2.2146   -7.4169    5.2726 LP  0  0  0  0  0  0  0  0  0  0  0  0  # atno 4302 bound_to 2510
   -3.5337  -16.5719   14.1414 LP  0  0  0  0  0  0  0  0  0  0  0  0  # atno 4306 bound_to 3712
   -3.0420  -17.6103   12.9809 LP  0  0  0  0  0  0  0  0  0  0  0  0  # atno 4307 bound_to 3712
    1.5883  -20.6437    9.4792 LP  0  0  0  0  0  0  0  0  0  0  0  0  # atno 4314 bound_to 3832
    2.0710  -19.6419    8.2834 LP  0  0  0  0  0  0  0  0  0  0  0  0  # atno 4315 bound_to 3832
   -4.9849  -23.0558   10.0651 LP  0  0  0  0  0  0  0  0  0  0  0  0  # atno 4318 bound_to 3762
   -5.2236  -21.9204   11.2142 LP  0  0  0  0  0  0  0  0  0  0  0  0  # atno 4319 bound_to 3762
   -4.3155   -4.7985    7.7025 LP  0  0  0  0  0  0  0  0  0  0  0  0  # atno 4320 bound_to 2467
   -3.9198   -5.2970    9.2063 LP  0  0  0  0  0  0  0  0  0  0  0  0  # atno 4321 bound_to 2467

> <Gold.Score>
     Score     S(PLP)   S(hbond)     S(cho)   S(metal)  DE(clash)   DE(tors)     intcor
     36.62     -34.32       1.00       0.00       0.00       0.00       0.35       0.01

> <Gold.PLP.Fitness>
36.6236

> <Gold.PLP.PLP>
-34.3237

> <Gold.PLP.part.hbond>
-1.0000

> <Gold.PLP.part.metal>
0.0000

> <Gold.PLP.part.buried>
-3.5785

> <Gold.PLP.part.nonpolar>
-30.1760

> <Gold.PLP.part.repulsive>
0.0000

> <Gold.PLP.ligand.clash>
0.0000

> <Gold.PLP.ligand.torsion>
0.3533

> <Gold.PLP.Chemscore.Hbond>
1.0000

> <Gold.PLP.Chemscore.CHOScore>
0.0000

> <Gold.PLP.Chemscore.Metal>
0.0000

> <Gold.Chemscore.Hbonds>
donor molecule, donor type, donor heavy atom, donor atom, acceptor molecule, acceptor atom, score
      L1  H     9    27       P1  1227  1.00

> <Gold.PLP.Chemscore.Internal.Correction>
0.0064

