#       Name:                EN300-260988_i003
#       Creating user name   fsindt
#       Creation time:       Tue Feb 28 10:35:47 2023


#       File generated by GOLD software.
#

@<TRIPOS>MOLECULE
EN300-260988_i003|amine_1|mol2|3993|dock8
    27    26     1
SMALL
USER_CHARGES


@<TRIPOS>ATOM
      1 C1          -0.4009 -14.3850   6.6356 C.3            1 <1>                0.0000
      2 C2           1.0729 -14.2066   7.0059 C.3            1 <1>                0.0000
      3 C3           1.1819 -13.7687   8.4679 C.3            1 <1>                0.0000
      4 C4           0.4851 -12.4188   8.6492 C.3            1 <1>                0.0000
      5 C5           0.5126 -14.8126   9.3642 C.3            1 <1>                0.0000
      6 C6           1.0542 -14.6837  10.7893 C.3            1 <1>                0.0000
      7 N7           2.4872 -15.0072  10.7997 N.4            1 <1>                1.0000
      8 C8           0.3062 -15.6512  11.7086 C.3            1 <1>                0.0000
      9 O9           0.4992 -16.9904  11.2490 O.3            1 <1>                0.0000
     10 H10         -0.9268 -13.4401   6.7720 H              1 <1>                0.0000
     11 H11         -0.4785 -14.6970   5.5941 H              1 <1>                0.0000
     12 H12         -0.8471 -15.1451   7.2768 H              1 <1>                0.0000
     13 H13          1.5988 -15.1514   6.8694 H              1 <1>                0.0000
     14 H14          1.5192 -13.4464   6.3648 H              1 <1>                0.0000
     15 H15          2.2328 -13.6749   8.7417 H              1 <1>                0.0000
     16 H16         -0.5658 -12.5126   8.3755 H              1 <1>                0.0000
     17 H17          0.5628 -12.1067   9.6907 H              1 <1>                0.0000
     18 H18          0.9619 -11.6751   8.0107 H              1 <1>                0.0000
     19 H19         -0.5652 -14.6499   9.3690 H              1 <1>                0.0000
     20 H20          0.7278 -15.8107   8.9826 H              1 <1>                0.0000
     21 H21          0.9098 -13.6625  11.1419 H              1 <1>                0.0000
     22 H22          0.6896 -15.5569  12.7245 H              1 <1>                0.0000
     23 H23         -0.7575 -15.4133  11.6981 H              1 <1>                0.0000
     24 H24          3.0151 -14.2061  10.4876 H              1 <1>                0.0000
     25 H25          2.7698 -15.2521  11.7368 H              1 <1>                0.0000
     26 H26          2.6605 -15.7859  10.1818 H              1 <1>                0.0000
     27 H27          1.2773 -17.1049  10.6863 H              1 <1>                0.0000
@<TRIPOS>BOND
    1    1    2 1     
    2    1   10 1     
    3    1   11 1     
    4    1   12 1     
    5    2    3 1     
    6    2   13 1     
    7    2   14 1     
    8    3    4 1     
    9    3    5 1     
   10    3   15 1     
   11    4   16 1     
   12    4   17 1     
   13    4   18 1     
   14    5    6 1     
   15    5   19 1     
   16    5   20 1     
   17    6    7 1     
   18    6    8 1     
   19    6   21 1     
   20    7   24 1     
   21    7   25 1     
   22    7   26 1     
   23    8    9 1     
   24    8   22 1     
   25    8   23 1     
   26    9   27 1     
@<TRIPOS>SUBSTRUCTURE
      1 ****           1
@<TRIPOS>SET
DONOR_HYDROGENS      STATIC     ATOMS    <user>   **** ""
4 24 25 26 27
ATOM$RED        STATIC     ATOMS    COLORGROUP SYSTEM
4 24 25 26 27
@<TRIPOS>COMMENT
> <Gold.Version>
2022.2.0

> <Gold.Id.Protein>
3pbl|protein|mol2

> <Gold.Protein.RotatedTorsions>
[ 1303 1298 1297 1294 ] final -130.91 input  179.99 | X-H torsion
[ 2461 2456 2455 2452 ] final    6.52 input   30.03 | X-H torsion
[ 2515 2510 2509 2506 ] final  -39.72 input  -89.99 | X-H torsion
[ 3721 3712 3711 3710 ] final  113.78 input -179.91 | X-H torsion
[ 3841 3832 3831 3830 ] final  -46.90 input -179.91 | X-H torsion
[ 3767 3762 3761 3758 ] final  159.41 input  -89.99 | X-H torsion
[ 2472 2467 2466 2463 ] final -130.80 input  -89.97 | X-H torsion

> <Gold.Protein.ActiveResidues>
 VAL82   VAL86   LEU89   PHE106  VAL107  ASP110  VAL111  MET112  CYS114  THR115 
 CYS181  SER182  ILE183  PHE188  VAL189  ILE190  SER192  SER193  SER196  TRP342 
 PHE345  PHE346  HIS349  VAL350  TYR365  THR369  GLY372  TYR373 

> <Gold.Protein.RotatedAtoms>
    4.3792   -8.4826    4.1981 H   0  0  0  0  0  0  0  0  0  0  0  0  # atno 1303 bound_to 1298
    1.1436   -7.9575    7.0359 H   0  0  0  0  0  0  0  0  0  0  0  0  # atno 2461 bound_to 2456
   -4.6780   -5.4596    9.4238 H   0  0  0  0  0  0  0  0  0  0  0  0  # atno 2472 bound_to 2467
    2.7642   -8.1744    4.3574 H   0  0  0  0  0  0  0  0  0  0  0  0  # atno 2515 bound_to 2510
   -2.9624  -17.3148   13.0309 H   0  0  0  0  0  0  0  0  0  0  0  0  # atno 3721 bound_to 3712
   -3.9523  -22.7864   11.3959 H   0  0  0  0  0  0  0  0  0  0  0  0  # atno 3767 bound_to 3762
    1.5686  -19.9406    9.1736 H   0  0  0  0  0  0  0  0  0  0  0  0  # atno 3841 bound_to 3832
    4.6390   -9.9166    4.9345 LP  0  0  0  0  0  0  0  0  0  0  0  0  # atno 4297 bound_to 1298
    3.3438   -9.7225    3.9591 LP  0  0  0  0  0  0  0  0  0  0  0  0  # atno 4298 bound_to 1298
    0.5093   -9.1272    7.9829 LP  0  0  0  0  0  0  0  0  0  0  0  0  # atno 4299 bound_to 2456
    2.0848   -8.7232    8.1292 LP  0  0  0  0  0  0  0  0  0  0  0  0  # atno 4300 bound_to 2456
    2.4651   -9.2014    5.5909 LP  0  0  0  0  0  0  0  0  0  0  0  0  # atno 4301 bound_to 2510
    2.0673   -7.6235    5.7273 LP  0  0  0  0  0  0  0  0  0  0  0  0  # atno 4302 bound_to 2510
   -2.6479  -18.0765   14.4088 LP  0  0  0  0  0  0  0  0  0  0  0  0  # atno 4306 bound_to 3712
   -3.4596  -16.6596   14.4098 LP  0  0  0  0  0  0  0  0  0  0  0  0  # atno 4307 bound_to 3712
    2.8100  -20.0140    8.1590 LP  0  0  0  0  0  0  0  0  0  0  0  0  # atno 4314 bound_to 3832
    2.6073  -21.1568    9.3077 LP  0  0  0  0  0  0  0  0  0  0  0  0  # atno 4315 bound_to 3832
   -4.8562  -23.1436   10.0836 LP  0  0  0  0  0  0  0  0  0  0  0  0  # atno 4318 bound_to 3762
   -5.3186  -21.9451   11.0918 LP  0  0  0  0  0  0  0  0  0  0  0  0  # atno 4319 bound_to 3762
   -5.3265   -5.0144    7.9928 LP  0  0  0  0  0  0  0  0  0  0  0  0  # atno 4320 bound_to 2467
   -3.7125   -4.9197    8.2227 LP  0  0  0  0  0  0  0  0  0  0  0  0  # atno 4321 bound_to 2467

> <Gold.Score>
     Score     S(PLP)   S(hbond)     S(cho)   S(metal)  DE(clash)   DE(tors)     intcor
     38.02     -29.45       3.00       0.00       0.00       0.00       0.22       0.01

> <Gold.PLP.Fitness>
38.0175

> <Gold.PLP.PLP>
-29.4520

> <Gold.PLP.part.hbond>
-2.0000

> <Gold.PLP.part.metal>
0.0000

> <Gold.PLP.part.buried>
-3.1058

> <Gold.PLP.part.nonpolar>
-24.8962

> <Gold.PLP.part.repulsive>
0.0533

> <Gold.PLP.ligand.clash>
0.0000

> <Gold.PLP.ligand.torsion>
0.2205

> <Gold.PLP.Chemscore.Hbond>
3.0000

> <Gold.PLP.Chemscore.CHOScore>
0.0000

> <Gold.PLP.Chemscore.Metal>
0.0000

> <Gold.Chemscore.Hbonds>
donor molecule, donor type, donor heavy atom, donor atom, acceptor molecule, acceptor atom, score
      L1  H     7    26       P1  1227  2.00
      L1  H     9    27       P1  1227  1.00

> <Gold.PLP.Chemscore.Internal.Correction>
0.0064

