#       Name:                EN300-260988_i003
#       Creating user name   fsindt
#       Creation time:       Tue Feb 28 10:35:43 2023


#       File generated by GOLD software.
#

@<TRIPOS>MOLECULE
EN300-260988_i003|amine_1|mol2|3993|dock5
    27    26     1
SMALL
USER_CHARGES


@<TRIPOS>ATOM
      1 C1           1.0864 -13.8610   7.0677 C.3            1 <1>                0.0000
      2 C2           0.5226 -14.8582   8.0819 C.3            1 <1>                0.0000
      3 C3           0.9363 -14.4383   9.4939 C.3            1 <1>                0.0000
      4 C4           0.5766 -12.9677   9.7145 C.3            1 <1>                0.0000
      5 C5           0.2000 -15.3028  10.5193 C.3            1 <1>                0.0000
      6 C6           0.9356 -15.2422  11.8595 C.3            1 <1>                0.0000
      7 N7           2.2002 -15.9829  11.7578 N.4            1 <1>                1.0000
      8 C8           0.0633 -15.8695  12.9488 C.3            1 <1>                0.0000
      9 O9           0.7671 -15.8504  14.1923 O.3            1 <1>                0.0000
     10 H10          2.1740 -13.8465   7.1384 H              1 <1>                0.0000
     11 H11          0.7917 -14.1602   6.0618 H              1 <1>                0.0000
     12 H12          0.6951 -12.8662   7.2802 H              1 <1>                0.0000
     13 H13         -0.5649 -14.8728   8.0112 H              1 <1>                0.0000
     14 H14          0.9140 -15.8531   7.8695 H              1 <1>                0.0000
     15 H15          2.0117 -14.5711   9.6121 H              1 <1>                0.0000
     16 H16         -0.4988 -12.8349   9.5964 H              1 <1>                0.0000
     17 H17          0.8713 -12.6685  10.7204 H              1 <1>                0.0000
     18 H18          1.1012 -12.3518   8.9840 H              1 <1>                0.0000
     19 H19         -0.8166 -14.9301  10.6457 H              1 <1>                0.0000
     20 H20          0.1679 -16.3344  10.1687 H              1 <1>                0.0000
     21 H21          1.1427 -14.2028  12.1136 H              1 <1>                0.0000
     22 H22         -0.8615 -15.3009  13.0460 H              1 <1>                0.0000
     23 H23         -0.1700 -16.8995  12.6791 H              1 <1>                0.0000
     24 H24          2.2348 -16.6896  12.4771 H              1 <1>                0.0000
     25 H25          2.2607 -16.4221  10.8515 H              1 <1>                0.0000
     26 H26          2.9735 -15.3454  11.8750 H              1 <1>                0.0000
     27 H27          1.4850 -16.4959  14.2480 H              1 <1>                0.0000
@<TRIPOS>BOND
    1    1    2 1     
    2    1   10 1     
    3    1   11 1     
    4    1   12 1     
    5    2    3 1     
    6    2   13 1     
    7    2   14 1     
    8    3    4 1     
    9    3    5 1     
   10    3   15 1     
   11    4   16 1     
   12    4   17 1     
   13    4   18 1     
   14    5    6 1     
   15    5   19 1     
   16    5   20 1     
   17    6    7 1     
   18    6    8 1     
   19    6   21 1     
   20    7   24 1     
   21    7   25 1     
   22    7   26 1     
   23    8    9 1     
   24    8   22 1     
   25    8   23 1     
   26    9   27 1     
@<TRIPOS>SUBSTRUCTURE
      1 ****           1
@<TRIPOS>SET
DONOR_HYDROGENS      STATIC     ATOMS    <user>   **** ""
4 24 25 26 27
ATOM$RED        STATIC     ATOMS    COLORGROUP SYSTEM
4 24 25 26 27
@<TRIPOS>COMMENT
> <Gold.Version>
2022.2.0

> <Gold.Id.Protein>
3pbl|protein|mol2

> <Gold.Protein.RotatedTorsions>
[ 1303 1298 1297 1294 ] final   18.11 input  179.99 | X-H torsion
[ 2461 2456 2455 2452 ] final  -58.72 input   30.03 | X-H torsion
[ 2515 2510 2509 2506 ] final -153.42 input  -89.99 | X-H torsion
[ 3721 3712 3711 3710 ] final   81.50 input -179.91 | X-H torsion
[ 3841 3832 3831 3830 ] final -143.50 input -179.91 | X-H torsion
[ 3767 3762 3761 3758 ] final -109.83 input  -89.99 | X-H torsion
[ 2472 2467 2466 2463 ] final -101.38 input  -89.97 | X-H torsion

> <Gold.Protein.ActiveResidues>
 VAL82   VAL86   LEU89   PHE106  VAL107  ASP110  VAL111  MET112  CYS114  THR115 
 CYS181  SER182  ILE183  PHE188  VAL189  ILE190  SER192  SER193  SER196  TRP342 
 PHE345  PHE346  HIS349  VAL350  TYR365  THR369  GLY372  TYR373 

> <Gold.Protein.RotatedAtoms>
    3.5140  -10.0800    4.2167 H   0  0  0  0  0  0  0  0  0  0  0  0  # atno 1303 bound_to 1298
    0.3769   -8.5444    7.3545 H   0  0  0  0  0  0  0  0  0  0  0  0  # atno 2461 bound_to 2456
   -4.2065   -5.3904    9.3758 H   0  0  0  0  0  0  0  0  0  0  0  0  # atno 2472 bound_to 2467
    2.5091   -9.2306    5.5019 H   0  0  0  0  0  0  0  0  0  0  0  0  # atno 2515 bound_to 2510
   -2.7235  -17.7112   13.1641 H   0  0  0  0  0  0  0  0  0  0  0  0  # atno 3721 bound_to 3712
   -4.9859  -21.9306   11.4318 H   0  0  0  0  0  0  0  0  0  0  0  0  # atno 3767 bound_to 3762
    2.5436  -19.7043    8.3584 H   0  0  0  0  0  0  0  0  0  0  0  0  # atno 3841 bound_to 3832
    3.9843   -8.5400    3.9453 LP  0  0  0  0  0  0  0  0  0  0  0  0  # atno 4297 bound_to 1298
    4.8641   -9.5011    4.9296 LP  0  0  0  0  0  0  0  0  0  0  0  0  # atno 4298 bound_to 1298
    1.4309   -9.2237    8.4009 LP  0  0  0  0  0  0  0  0  0  0  0  0  # atno 4299 bound_to 2456
    1.9298   -8.0400    7.3926 LP  0  0  0  0  0  0  0  0  0  0  0  0  # atno 4300 bound_to 2456
    2.0506   -7.6927    5.8023 LP  0  0  0  0  0  0  0  0  0  0  0  0  # atno 4301 bound_to 2510
    2.7370   -8.0754    4.3709 LP  0  0  0  0  0  0  0  0  0  0  0  0  # atno 4302 bound_to 2510
   -2.8193  -17.7217   14.7668 LP  0  0  0  0  0  0  0  0  0  0  0  0  # atno 4306 bound_to 3712
   -3.5641  -16.5568   13.8980 LP  0  0  0  0  0  0  0  0  0  0  0  0  # atno 4307 bound_to 3712
    2.8635  -21.0947    9.0935 LP  0  0  0  0  0  0  0  0  0  0  0  0  # atno 4314 bound_to 3832
    1.4277  -20.3491    9.3150 LP  0  0  0  0  0  0  0  0  0  0  0  0  # atno 4315 bound_to 3832
   -3.9189  -23.1042   11.0433 LP  0  0  0  0  0  0  0  0  0  0  0  0  # atno 4318 bound_to 3762
   -5.2227  -22.8401   10.0963 LP  0  0  0  0  0  0  0  0  0  0  0  0  # atno 4319 bound_to 3762
   -5.5030   -5.1824    8.4051 LP  0  0  0  0  0  0  0  0  0  0  0  0  # atno 4320 bound_to 2467
   -4.0073   -4.8208    7.8585 LP  0  0  0  0  0  0  0  0  0  0  0  0  # atno 4321 bound_to 2467

> <Gold.Score>
     Score     S(PLP)   S(hbond)     S(cho)   S(metal)  DE(clash)   DE(tors)     intcor
     36.86     -28.41       3.00       0.00       0.00       0.00       0.28       0.01

> <Gold.PLP.Fitness>
36.8620

> <Gold.PLP.PLP>
-28.4138

> <Gold.PLP.part.hbond>
-2.0000

> <Gold.PLP.part.metal>
0.0000

> <Gold.PLP.part.buried>
-3.9128

> <Gold.PLP.part.nonpolar>
-23.0294

> <Gold.PLP.part.repulsive>
0.0000

> <Gold.PLP.ligand.clash>
0.0000

> <Gold.PLP.ligand.torsion>
0.2791

> <Gold.PLP.Chemscore.Hbond>
3.0000

> <Gold.PLP.Chemscore.CHOScore>
0.0000

> <Gold.PLP.Chemscore.Metal>
0.0000

> <Gold.Chemscore.Hbonds>
donor molecule, donor type, donor heavy atom, donor atom, acceptor molecule, acceptor atom, score
      L1  H     7    25       P1  1227  2.00
      P1  H  2305  2313       L1     9  1.00

> <Gold.PLP.Chemscore.Internal.Correction>
0.0064

