#       Name:                EN300-260988_i003
#       Creating user name   fsindt
#       Creation time:       Tue Feb 28 10:36:00 2023


#       File generated by GOLD software.
#

@<TRIPOS>MOLECULE
EN300-260988_i003|amine_1|mol2|3993|dock20
    27    26     1
SMALL
USER_CHARGES


@<TRIPOS>ATOM
      1 C1           1.3994 -12.4824   6.6299 C.3            1 <1>                0.0000
      2 C2           1.5006 -13.5551   7.7162 C.3            1 <1>                0.0000
      3 C3           0.0951 -13.9955   8.1305 C.3            1 <1>                0.0000
      4 C4          -0.6868 -14.4370   6.8918 C.3            1 <1>                0.0000
      5 C5           0.1957 -15.1638   9.1134 C.3            1 <1>                0.0000
      6 C6           0.7438 -14.6600  10.4500 C.3            1 <1>                0.0000
      7 N7           2.2111 -14.7292  10.4350 N.4            1 <1>                1.0000
      8 C8           0.2035 -15.5331  11.5844 C.3            1 <1>                0.0000
      9 O9           0.5998 -16.8894  11.3716 O.3            1 <1>                0.0000
     10 H10          0.8492 -11.6246   7.0166 H              1 <1>                0.0000
     11 H11          2.4008 -12.1687   6.3348 H              1 <1>                0.0000
     12 H12          0.8764 -12.8897   5.7647 H              1 <1>                0.0000
     13 H13          2.0509 -14.4129   7.3297 H              1 <1>                0.0000
     14 H14          2.0235 -13.1478   8.5815 H              1 <1>                0.0000
     15 H15         -0.4207 -13.1624   8.6080 H              1 <1>                0.0000
     16 H16         -0.1711 -15.2701   6.4143 H              1 <1>                0.0000
     17 H17         -1.6882 -14.7507   7.1869 H              1 <1>                0.0000
     18 H18         -0.7585 -13.6047   6.1916 H              1 <1>                0.0000
     19 H19         -0.7932 -15.5963   9.2660 H              1 <1>                0.0000
     20 H20          0.8656 -15.9224   8.7087 H              1 <1>                0.0000
     21 H21          0.4304 -13.6276  10.6053 H              1 <1>                0.0000
     22 H22          0.6044 -15.1823  12.5353 H              1 <1>                0.0000
     23 H23         -0.8845 -15.4713  11.6037 H              1 <1>                0.0000
     24 H24          2.5696 -14.4642  11.3401 H              1 <1>                0.0000
     25 H25          2.5011 -15.6717  10.2211 H              1 <1>                0.0000
     26 H26          2.5703 -14.0994   9.7333 H              1 <1>                0.0000
     27 H27          1.3501 -16.9902  10.7698 H              1 <1>                0.0000
@<TRIPOS>BOND
    1    1    2 1     
    2    1   10 1     
    3    1   11 1     
    4    1   12 1     
    5    2    3 1     
    6    2   13 1     
    7    2   14 1     
    8    3    4 1     
    9    3    5 1     
   10    3   15 1     
   11    4   16 1     
   12    4   17 1     
   13    4   18 1     
   14    5    6 1     
   15    5   19 1     
   16    5   20 1     
   17    6    7 1     
   18    6    8 1     
   19    6   21 1     
   20    7   24 1     
   21    7   25 1     
   22    7   26 1     
   23    8    9 1     
   24    8   22 1     
   25    8   23 1     
   26    9   27 1     
@<TRIPOS>SUBSTRUCTURE
      1 ****           1
@<TRIPOS>SET
DONOR_HYDROGENS      STATIC     ATOMS    <user>   **** ""
4 24 25 26 27
ATOM$RED        STATIC     ATOMS    COLORGROUP SYSTEM
4 24 25 26 27
@<TRIPOS>COMMENT
> <Gold.Version>
2022.2.0

> <Gold.Id.Protein>
3pbl|protein|mol2

> <Gold.Protein.RotatedTorsions>
[ 1303 1298 1297 1294 ] final   77.21 input  179.99 | X-H torsion
[ 2461 2456 2455 2452 ] final  130.10 input   30.03 | X-H torsion
[ 2515 2510 2509 2506 ] final -162.39 input  -89.99 | X-H torsion
[ 3721 3712 3711 3710 ] final  -12.87 input -179.91 | X-H torsion
[ 3841 3832 3831 3830 ] final   12.55 input -179.91 | X-H torsion
[ 3767 3762 3761 3758 ] final  -75.26 input  -89.99 | X-H torsion
[ 2472 2467 2466 2463 ] final  -15.79 input  -89.97 | X-H torsion

> <Gold.Protein.ActiveResidues>
 VAL82   VAL86   LEU89   PHE106  VAL107  ASP110  VAL111  MET112  CYS114  THR115 
 CYS181  SER182  ILE183  PHE188  VAL189  ILE190  SER192  SER193  SER196  TRP342 
 PHE345  PHE346  HIS349  VAL350  TYR365  THR369  GLY372  TYR373 

> <Gold.Protein.RotatedAtoms>
    4.2448  -10.2124    4.7759 H   0  0  0  0  0  0  0  0  0  0  0  0  # atno 1303 bound_to 1298
    2.0605   -8.7652    8.1627 H   0  0  0  0  0  0  0  0  0  0  0  0  # atno 2461 bound_to 2456
   -3.6831   -4.9434    8.2954 H   0  0  0  0  0  0  0  0  0  0  0  0  # atno 2472 bound_to 2467
    2.4464   -9.1852    5.6273 H   0  0  0  0  0  0  0  0  0  0  0  0  # atno 2515 bound_to 2510
   -2.5243  -17.8655   14.4097 H   0  0  0  0  0  0  0  0  0  0  0  0  # atno 3721 bound_to 3712
   -5.3642  -21.9666   11.0200 H   0  0  0  0  0  0  0  0  0  0  0  0  # atno 3767 bound_to 3762
    1.8590  -20.6235    9.6053 H   0  0  0  0  0  0  0  0  0  0  0  0  # atno 3841 bound_to 3832
    3.3819   -9.2325    3.7954 LP  0  0  0  0  0  0  0  0  0  0  0  0  # atno 4297 bound_to 1298
    4.7354   -8.6761    4.5201 LP  0  0  0  0  0  0  0  0  0  0  0  0  # atno 4298 bound_to 1298
    1.2007   -7.9444    7.0426 LP  0  0  0  0  0  0  0  0  0  0  0  0  # atno 4299 bound_to 2456
    0.4768   -9.0986    7.9429 LP  0  0  0  0  0  0  0  0  0  0  0  0  # atno 4300 bound_to 2456
    2.0758   -7.5965    5.6935 LP  0  0  0  0  0  0  0  0  0  0  0  0  # atno 4301 bound_to 2510
    2.7745   -8.2170    4.3543 LP  0  0  0  0  0  0  0  0  0  0  0  0  # atno 4302 bound_to 2510
   -3.5051  -16.6024   14.2667 LP  0  0  0  0  0  0  0  0  0  0  0  0  # atno 4306 bound_to 3712
   -3.1083  -17.4978   12.9600 LP  0  0  0  0  0  0  0  0  0  0  0  0  # atno 4307 bound_to 3712
    1.9600  -19.6343    8.3454 LP  0  0  0  0  0  0  0  0  0  0  0  0  # atno 4314 bound_to 3832
    3.1220  -20.7477    8.6227 LP  0  0  0  0  0  0  0  0  0  0  0  0  # atno 4315 bound_to 3832
   -3.9810  -22.7218   11.4480 LP  0  0  0  0  0  0  0  0  0  0  0  0  # atno 4318 bound_to 3762
   -4.7824  -23.1864   10.1032 LP  0  0  0  0  0  0  0  0  0  0  0  0  # atno 4319 bound_to 3762
   -4.7585   -5.4624    9.4092 LP  0  0  0  0  0  0  0  0  0  0  0  0  # atno 4320 bound_to 2467
   -5.2751   -4.9877    7.9345 LP  0  0  0  0  0  0  0  0  0  0  0  0  # atno 4321 bound_to 2467

> <Gold.Score>
     Score     S(PLP)   S(hbond)     S(cho)   S(metal)  DE(clash)   DE(tors)     intcor
     37.93     -29.78       3.00       0.00       0.00       0.00       0.43       0.01

> <Gold.PLP.Fitness>
37.9334

> <Gold.PLP.PLP>
-29.7779

> <Gold.PLP.part.hbond>
-2.0000

> <Gold.PLP.part.metal>
0.0000

> <Gold.PLP.part.buried>
-3.1618

> <Gold.PLP.part.nonpolar>
-25.4531

> <Gold.PLP.part.repulsive>
0.0563

> <Gold.PLP.ligand.clash>
0.0000

> <Gold.PLP.ligand.torsion>
0.4254

> <Gold.PLP.Chemscore.Hbond>
3.0000

> <Gold.PLP.Chemscore.CHOScore>
0.0000

> <Gold.PLP.Chemscore.Metal>
0.0000

> <Gold.Chemscore.Hbonds>
donor molecule, donor type, donor heavy atom, donor atom, acceptor molecule, acceptor atom, score
      L1  H     7    25       P1  1227  2.00
      L1  H     9    27       P1  1227  1.00

> <Gold.PLP.Chemscore.Internal.Correction>
0.0064

