#       Name:                EN300-260988_i003
#       Creating user name   fsindt
#       Creation time:       Tue Feb 28 10:35:56 2023


#       File generated by GOLD software.
#

@<TRIPOS>MOLECULE
EN300-260988_i003|amine_1|mol2|3993|dock16
    27    26     1
SMALL
USER_CHARGES


@<TRIPOS>ATOM
      1 C1          -1.5694 -11.5321  10.2324 C.3            1 <1>                0.0000
      2 C2          -0.7426 -11.1008   9.0195 C.3            1 <1>                0.0000
      3 C3          -0.1183 -12.3339   8.3632 C.3            1 <1>                0.0000
      4 C4           0.7555 -11.8975   7.1856 C.3            1 <1>                0.0000
      5 C5           0.7410 -13.0771   9.3881 C.3            1 <1>                0.0000
      6 C6           0.4580 -14.5780   9.2983 C.3            1 <1>                0.0000
      7 N7           1.3506 -15.3002  10.2147 N.4            1 <1>                1.0000
      8 C8           0.7008 -15.0579   7.8659 C.3            1 <1>                0.0000
      9 O9           0.5108 -16.4726   7.7989 O.3            1 <1>                0.0000
     10 H10         -0.9242 -12.0384  10.9504 H              1 <1>                0.0000
     11 H11         -2.0141 -10.6536  10.6999 H              1 <1>                0.0000
     12 H12         -2.3588 -12.2115   9.9110 H              1 <1>                0.0000
     13 H13         -1.3876 -10.5944   8.3015 H              1 <1>                0.0000
     14 H14          0.0469 -10.4214   9.3409 H              1 <1>                0.0000
     15 H15         -0.9082 -12.9938   8.0046 H              1 <1>                0.0000
     16 H16          1.5455 -11.2376   7.5441 H              1 <1>                0.0000
     17 H17          1.2003 -12.7760   6.7180 H              1 <1>                0.0000
     18 H18          0.1434 -11.3681   6.4554 H              1 <1>                0.0000
     19 H19          1.7951 -12.8930   9.1801 H              1 <1>                0.0000
     20 H20          0.5007 -12.7213  10.3899 H              1 <1>                0.0000
     21 H21         -0.5787 -14.7694   9.5748 H              1 <1>                0.0000
     22 H22         -0.0012 -14.5648   7.1936 H              1 <1>                0.0000
     23 H23          1.7208 -14.8138   7.5690 H              1 <1>                0.0000
     24 H24          0.8120 -15.6815  10.9779 H              1 <1>                0.0000
     25 H25          1.8074 -16.0502   9.7177 H              1 <1>                0.0000
     26 H26          2.0455 -14.6650  10.5775 H              1 <1>                0.0000
     27 H27          1.0208 -16.9694   8.4534 H              1 <1>                0.0000
@<TRIPOS>BOND
    1    1    2 1     
    2    1   10 1     
    3    1   11 1     
    4    1   12 1     
    5    2    3 1     
    6    2   13 1     
    7    2   14 1     
    8    3    4 1     
    9    3    5 1     
   10    3   15 1     
   11    4   16 1     
   12    4   17 1     
   13    4   18 1     
   14    5    6 1     
   15    5   19 1     
   16    5   20 1     
   17    6    7 1     
   18    6    8 1     
   19    6   21 1     
   20    7   24 1     
   21    7   25 1     
   22    7   26 1     
   23    8    9 1     
   24    8   22 1     
   25    8   23 1     
   26    9   27 1     
@<TRIPOS>SUBSTRUCTURE
      1 ****           1
@<TRIPOS>SET
DONOR_HYDROGENS      STATIC     ATOMS    <user>   **** ""
4 24 25 26 27
ATOM$RED        STATIC     ATOMS    COLORGROUP SYSTEM
4 24 25 26 27
@<TRIPOS>COMMENT
> <Gold.Version>
2022.2.0

> <Gold.Id.Protein>
3pbl|protein|mol2

> <Gold.Protein.RotatedTorsions>
[ 1303 1298 1297 1294 ] final  -33.11 input  179.99 | X-H torsion
[ 2461 2456 2455 2452 ] final -121.77 input   30.03 | X-H torsion
[ 2515 2510 2509 2506 ] final   99.92 input  -89.99 | X-H torsion
[ 3721 3712 3711 3710 ] final   -0.22 input -179.91 | X-H torsion
[ 3841 3832 3831 3830 ] final -151.81 input -179.91 | X-H torsion
[ 3767 3762 3761 3758 ] final  -92.79 input  -89.99 | X-H torsion
[ 2472 2467 2466 2463 ] final  -64.96 input  -89.97 | X-H torsion

> <Gold.Protein.ActiveResidues>
 VAL82   VAL86   LEU89   PHE106  VAL107  ASP110  VAL111  MET112  CYS114  THR115 
 CYS181  SER182  ILE183  PHE188  VAL189  ILE190  SER192  SER193  SER196  TRP342 
 PHE345  PHE346  HIS349  VAL350  TYR365  THR369  GLY372  TYR373 

> <Gold.Protein.RotatedAtoms>
    3.3447   -9.3835    3.8288 H   0  0  0  0  0  0  0  0  0  0  0  0  # atno 1303 bound_to 1298
    0.5952   -9.1856    8.0712 H   0  0  0  0  0  0  0  0  0  0  0  0  # atno 2461 bound_to 2456
   -3.7653   -5.2160    9.0265 H   0  0  0  0  0  0  0  0  0  0  0  0  # atno 2472 bound_to 2467
    2.0308   -7.8642    5.9373 H   0  0  0  0  0  0  0  0  0  0  0  0  # atno 2515 bound_to 2510
   -2.4874  -17.9554   14.2454 H   0  0  0  0  0  0  0  0  0  0  0  0  # atno 3721 bound_to 3712
   -5.1944  -21.9163   11.2462 H   0  0  0  0  0  0  0  0  0  0  0  0  # atno 3767 bound_to 3762
    2.6515  -19.7673    8.3480 H   0  0  0  0  0  0  0  0  0  0  0  0  # atno 3841 bound_to 3832
    4.6430   -8.5910    4.4228 LP  0  0  0  0  0  0  0  0  0  0  0  0  # atno 4297 bound_to 1298
    4.3747  -10.1468    4.8401 LP  0  0  0  0  0  0  0  0  0  0  0  0  # atno 4298 bound_to 1298
    2.1288   -8.6246    8.0461 LP  0  0  0  0  0  0  0  0  0  0  0  0  # atno 4299 bound_to 2456
    1.0136   -7.9981    7.0309 LP  0  0  0  0  0  0  0  0  0  0  0  0  # atno 4300 bound_to 2456
    2.6677   -7.8774    4.4340 LP  0  0  0  0  0  0  0  0  0  0  0  0  # atno 4301 bound_to 2510
    2.5984   -9.2578    5.3037 LP  0  0  0  0  0  0  0  0  0  0  0  0  # atno 4302 bound_to 2510
   -3.4431  -16.6819   14.4521 LP  0  0  0  0  0  0  0  0  0  0  0  0  # atno 4306 bound_to 3712
   -3.2128  -17.3146   12.9644 LP  0  0  0  0  0  0  0  0  0  0  0  0  # atno 4307 bound_to 3712
    2.7669  -21.1313    9.1860 LP  0  0  0  0  0  0  0  0  0  0  0  0  # atno 4314 bound_to 3832
    1.3996  -20.2398    9.2344 LP  0  0  0  0  0  0  0  0  0  0  0  0  # atno 4315 bound_to 3832
   -3.9136  -22.9293   11.2612 LP  0  0  0  0  0  0  0  0  0  0  0  0  # atno 4318 bound_to 3762
   -5.0195  -23.0292   10.0639 LP  0  0  0  0  0  0  0  0  0  0  0  0  # atno 4319 bound_to 3762
   -5.3896   -5.3673    8.9528 LP  0  0  0  0  0  0  0  0  0  0  0  0  # atno 4320 bound_to 2467
   -4.5619   -4.8103    7.6600 LP  0  0  0  0  0  0  0  0  0  0  0  0  # atno 4321 bound_to 2467

> <Gold.Score>
     Score     S(PLP)   S(hbond)     S(cho)   S(metal)  DE(clash)   DE(tors)     intcor
     38.37     -30.68       3.00       0.00       0.00       0.00       0.66       0.01

> <Gold.PLP.Fitness>
38.3721

> <Gold.PLP.PLP>
-30.6767

> <Gold.PLP.part.hbond>
-2.0000

> <Gold.PLP.part.metal>
0.0000

> <Gold.PLP.part.buried>
-3.3279

> <Gold.PLP.part.nonpolar>
-25.4395

> <Gold.PLP.part.repulsive>
0.0170

> <Gold.PLP.ligand.clash>
0.0000

> <Gold.PLP.ligand.torsion>
0.6555

> <Gold.PLP.Chemscore.Hbond>
3.0000

> <Gold.PLP.Chemscore.CHOScore>
0.0000

> <Gold.PLP.Chemscore.Metal>
0.0000

> <Gold.Chemscore.Hbonds>
donor molecule, donor type, donor heavy atom, donor atom, acceptor molecule, acceptor atom, score
      L1  H     7    25       P1  1227  2.00
      L1  H     9    27       P1  1227  1.00

> <Gold.PLP.Chemscore.Internal.Correction>
0.0064

