#       Name:                EN300-260988_i003
#       Creating user name   fsindt
#       Creation time:       Tue Feb 28 10:35:58 2023


#       File generated by GOLD software.
#

@<TRIPOS>MOLECULE
EN300-260988_i003|amine_1|mol2|3993|dock18
    27    26     1
SMALL
USER_CHARGES


@<TRIPOS>ATOM
      1 C1           2.2950 -17.0770  14.3941 C.3            1 <1>                0.0000
      2 C2           1.8508 -16.9842  12.9330 C.3            1 <1>                0.0000
      3 C3           0.3227 -16.9475  12.8659 C.3            1 <1>                0.0000
      4 C4          -0.1839 -15.6443  13.4871 C.3            1 <1>                0.0000
      5 C5          -0.1257 -17.0241  11.4050 C.3            1 <1>                0.0000
      6 C6          -0.2742 -18.4901  10.9934 C.3            1 <1>                0.0000
      7 N7           1.0446 -19.1373  11.0024 N.4            1 <1>                1.0000
      8 C8          -0.8704 -18.5669   9.5864 C.3            1 <1>                0.0000
      9 O9           0.1083 -18.1528   8.6311 O.3            1 <1>                0.0000
     10 H10          1.8898 -17.9854  14.8400 H              1 <1>                0.0000
     11 H11          3.3836 -17.1032  14.4419 H              1 <1>                0.0000
     12 H12          1.9280 -16.2087  14.9413 H              1 <1>                0.0000
     13 H13          2.2560 -16.0759  12.4871 H              1 <1>                0.0000
     14 H14          2.2177 -17.8525  12.3858 H              1 <1>                0.0000
     15 H15         -0.0857 -17.7952  13.4161 H              1 <1>                0.0000
     16 H16          0.2244 -14.7966  12.9368 H              1 <1>                0.0000
     17 H17         -1.2726 -15.6181  13.4394 H              1 <1>                0.0000
     18 H18          0.1354 -15.5897  14.5278 H              1 <1>                0.0000
     19 H19         -1.0834 -16.5161  11.2918 H              1 <1>                0.0000
     20 H20          0.6185 -16.5422  10.7708 H              1 <1>                0.0000
     21 H21         -0.9337 -18.9997  11.6958 H              1 <1>                0.0000
     22 H22         -1.1728 -19.5926   9.3754 H              1 <1>                0.0000
     23 H23         -1.7392 -17.9117   9.5238 H              1 <1>                0.0000
     24 H24          1.2290 -19.5122  11.9208 H              1 <1>                0.0000
     25 H25          1.0569 -19.8851  10.3251 H              1 <1>                0.0000
     26 H26          1.7536 -18.4590  10.7674 H              1 <1>                0.0000
     27 H27          1.0211 -18.2533   8.9342 H              1 <1>                0.0000
@<TRIPOS>BOND
    1    1    2 1     
    2    1   10 1     
    3    1   11 1     
    4    1   12 1     
    5    2    3 1     
    6    2   13 1     
    7    2   14 1     
    8    3    4 1     
    9    3    5 1     
   10    3   15 1     
   11    4   16 1     
   12    4   17 1     
   13    4   18 1     
   14    5    6 1     
   15    5   19 1     
   16    5   20 1     
   17    6    7 1     
   18    6    8 1     
   19    6   21 1     
   20    7   24 1     
   21    7   25 1     
   22    7   26 1     
   23    8    9 1     
   24    8   22 1     
   25    8   23 1     
   26    9   27 1     
@<TRIPOS>SUBSTRUCTURE
      1 ****           1
@<TRIPOS>SET
DONOR_HYDROGENS      STATIC     ATOMS    <user>   **** ""
4 24 25 26 27
ATOM$RED        STATIC     ATOMS    COLORGROUP SYSTEM
4 24 25 26 27
@<TRIPOS>COMMENT
> <Gold.Version>
2022.2.0

> <Gold.Id.Protein>
3pbl|protein|mol2

> <Gold.Protein.RotatedTorsions>
[ 1303 1298 1297 1294 ] final   36.33 input  179.99 | X-H torsion
[ 2461 2456 2455 2452 ] final -148.88 input   30.03 | X-H torsion
[ 2515 2510 2509 2506 ] final  -75.02 input  -89.99 | X-H torsion
[ 3721 3712 3711 3710 ] final -114.85 input -179.91 | X-H torsion
[ 3841 3832 3831 3830 ] final -148.35 input -179.91 | X-H torsion
[ 3767 3762 3761 3758 ] final  167.95 input  -89.99 | X-H torsion
[ 2472 2467 2466 2463 ] final   99.09 input  -89.97 | X-H torsion

> <Gold.Protein.ActiveResidues>
 VAL82   VAL86   LEU89   PHE106  VAL107  ASP110  VAL111  MET112  CYS114  THR115 
 CYS181  SER182  ILE183  PHE188  VAL189  ILE190  SER192  SER193  SER196  TRP342 
 PHE345  PHE346  HIS349  VAL350  TYR365  THR369  GLY372  TYR373 

> <Gold.Protein.RotatedAtoms>
    3.7032  -10.2180    4.4017 H   0  0  0  0  0  0  0  0  0  0  0  0  # atno 1303 bound_to 1298
    0.9602   -9.2864    8.2994 H   0  0  0  0  0  0  0  0  0  0  0  0  # atno 2461 bound_to 2456
   -5.2168   -4.9622    7.8793 H   0  0  0  0  0  0  0  0  0  0  0  0  # atno 2472 bound_to 2467
    2.8358   -8.7299    4.4715 H   0  0  0  0  0  0  0  0  0  0  0  0  # atno 2515 bound_to 2510
   -3.1891  -16.6965   14.4657 H   0  0  0  0  0  0  0  0  0  0  0  0  # atno 3721 bound_to 3712
   -4.0004  -22.6819   11.4764 H   0  0  0  0  0  0  0  0  0  0  0  0  # atno 3767 bound_to 3762
    2.6072  -19.7398    8.3507 H   0  0  0  0  0  0  0  0  0  0  0  0  # atno 3841 bound_to 3832
    3.7474   -8.6864    3.8375 LP  0  0  0  0  0  0  0  0  0  0  0  0  # atno 4297 bound_to 1298
    4.9117   -9.2166    4.8523 LP  0  0  0  0  0  0  0  0  0  0  0  0  # atno 4298 bound_to 1298
    2.1418   -8.3098    7.7361 LP  0  0  0  0  0  0  0  0  0  0  0  0  # atno 4299 bound_to 2456
    0.6357   -8.2121    7.1128 LP  0  0  0  0  0  0  0  0  0  0  0  0  # atno 4300 bound_to 2456
    2.2265   -8.8578    5.9809 LP  0  0  0  0  0  0  0  0  0  0  0  0  # atno 4301 bound_to 2510
    2.2342   -7.4113    5.2232 LP  0  0  0  0  0  0  0  0  0  0  0  0  # atno 4302 bound_to 2510
   -3.2322  -17.2799   12.9705 LP  0  0  0  0  0  0  0  0  0  0  0  0  # atno 4306 bound_to 3712
   -2.6135  -18.1701   14.1917 LP  0  0  0  0  0  0  0  0  0  0  0  0  # atno 4307 bound_to 3712
    2.8085  -21.1179    9.1483 LP  0  0  0  0  0  0  0  0  0  0  0  0  # atno 4314 bound_to 3832
    1.4091  -20.2850    9.2690 LP  0  0  0  0  0  0  0  0  0  0  0  0  # atno 4315 bound_to 3832
   -4.7375  -23.2100   10.1182 LP  0  0  0  0  0  0  0  0  0  0  0  0  # atno 4318 bound_to 3762
   -5.3893  -21.9832   10.9767 LP  0  0  0  0  0  0  0  0  0  0  0  0  # atno 4319 bound_to 3762
   -3.6602   -4.9679    8.3726 LP  0  0  0  0  0  0  0  0  0  0  0  0  # atno 4320 bound_to 2467
   -4.8400   -5.4634    9.3871 LP  0  0  0  0  0  0  0  0  0  0  0  0  # atno 4321 bound_to 2467

> <Gold.Score>
     Score     S(PLP)   S(hbond)     S(cho)   S(metal)  DE(clash)   DE(tors)     intcor
     40.39     -29.86       3.81       0.00       0.00       0.00       0.46       0.01

> <Gold.PLP.Fitness>
40.3891

> <Gold.PLP.PLP>
-29.8648

> <Gold.PLP.part.hbond>
-3.8095

> <Gold.PLP.part.metal>
0.0000

> <Gold.PLP.part.buried>
-3.9274

> <Gold.PLP.part.nonpolar>
-23.6091

> <Gold.PLP.part.repulsive>
0.0000

> <Gold.PLP.ligand.clash>
0.0000

> <Gold.PLP.ligand.torsion>
0.4578

> <Gold.PLP.Chemscore.Hbond>
3.8112

> <Gold.PLP.Chemscore.CHOScore>
0.0000

> <Gold.PLP.Chemscore.Metal>
0.0000

> <Gold.Chemscore.Hbonds>
donor molecule, donor type, donor heavy atom, donor atom, acceptor molecule, acceptor atom, score
      L1  H     7    25       P1  3832  0.81
      L1  H     7    26       P1  1227  2.00
      L1  H     9    27       P1  1227  1.00

> <Gold.PLP.Chemscore.Internal.Correction>
0.0064

