#       Name:                EN300-260988_i003
#       Creating user name   fsindt
#       Creation time:       Tue Feb 28 10:35:44 2023


#       File generated by GOLD software.
#

@<TRIPOS>MOLECULE
EN300-260988_i003|amine_1|mol2|3993|dock6
    27    26     1
SMALL
USER_CHARGES


@<TRIPOS>ATOM
      1 C1          -0.4860 -10.0486  11.2189 C.3            1 <1>                0.0000
      2 C2          -0.4642 -10.8232   9.8997 C.3            1 <1>                0.0000
      3 C3          -0.0835 -12.2803  10.1702 C.3            1 <1>                0.0000
      4 C4          -1.1240 -12.9160  11.0943 C.3            1 <1>                0.0000
      5 C5          -0.0377 -13.0493   8.8482 C.3            1 <1>                0.0000
      6 C6           0.2162 -14.5317   9.1291 C.3            1 <1>                0.0000
      7 N7           1.5481 -14.6956   9.7268 N.4            1 <1>                1.0000
      8 C8           0.1448 -15.3185   7.8189 C.3            1 <1>                0.0000
      9 O9           0.2138 -16.7180   8.0993 O.3            1 <1>                0.0000
     10 H10          0.5015 -10.0867  11.6790 H              1 <1>                0.0000
     11 H11         -0.7571  -9.0105  11.0261 H              1 <1>                0.0000
     12 H12         -1.2176 -10.4965  11.8912 H              1 <1>                0.0000
     13 H13         -1.4515 -10.7851   9.4395 H              1 <1>                0.0000
     14 H14          0.2677 -10.3754   9.2274 H              1 <1>                0.0000
     15 H15          0.8963 -12.3175  10.6462 H              1 <1>                0.0000
     16 H16         -2.1039 -12.8789  10.6182 H              1 <1>                0.0000
     17 H17         -0.8529 -13.9540  11.2870 H              1 <1>                0.0000
     18 H18         -1.1566 -12.3683  12.0361 H              1 <1>                0.0000
     19 H19         -0.9893 -12.9357   8.3287 H              1 <1>                0.0000
     20 H20          0.7654 -12.6545   8.2259 H              1 <1>                0.0000
     21 H21         -0.5402 -14.9055   9.8191 H              1 <1>                0.0000
     22 H22         -0.7939 -15.0954   7.3118 H              1 <1>                0.0000
     23 H23          0.9800 -15.0347   7.1787 H              1 <1>                0.0000
     24 H24          1.8152 -15.6680   9.6915 H              1 <1>                0.0000
     25 H25          2.2179 -14.1440   9.2120 H              1 <1>                0.0000
     26 H26          1.5259 -14.3875  10.6873 H              1 <1>                0.0000
     27 H27          0.8763 -16.9540   8.7630 H              1 <1>                0.0000
@<TRIPOS>BOND
    1    1    2 1     
    2    1   10 1     
    3    1   11 1     
    4    1   12 1     
    5    2    3 1     
    6    2   13 1     
    7    2   14 1     
    8    3    4 1     
    9    3    5 1     
   10    3   15 1     
   11    4   16 1     
   12    4   17 1     
   13    4   18 1     
   14    5    6 1     
   15    5   19 1     
   16    5   20 1     
   17    6    7 1     
   18    6    8 1     
   19    6   21 1     
   20    7   24 1     
   21    7   25 1     
   22    7   26 1     
   23    8    9 1     
   24    8   22 1     
   25    8   23 1     
   26    9   27 1     
@<TRIPOS>SUBSTRUCTURE
      1 ****           1
@<TRIPOS>SET
DONOR_HYDROGENS      STATIC     ATOMS    <user>   **** ""
4 24 25 26 27
ATOM$RED        STATIC     ATOMS    COLORGROUP SYSTEM
4 24 25 26 27
@<TRIPOS>COMMENT
> <Gold.Version>
2022.2.0

> <Gold.Id.Protein>
3pbl|protein|mol2

> <Gold.Protein.RotatedTorsions>
[ 1303 1298 1297 1294 ] final  114.69 input  179.99 | X-H torsion
[ 2461 2456 2455 2452 ] final  155.65 input   30.03 | X-H torsion
[ 2515 2510 2509 2506 ] final   -8.52 input  -89.99 | X-H torsion
[ 3721 3712 3711 3710 ] final  112.94 input -179.91 | X-H torsion
[ 3841 3832 3831 3830 ] final  175.27 input -179.91 | X-H torsion
[ 3767 3762 3761 3758 ] final -147.29 input  -89.99 | X-H torsion
[ 2472 2467 2466 2463 ] final -102.51 input  -89.97 | X-H torsion

> <Gold.Protein.ActiveResidues>
 VAL82   VAL86   LEU89   PHE106  VAL107  ASP110  VAL111  MET112  CYS114  THR115 
 CYS181  SER182  ILE183  PHE188  VAL189  ILE190  SER192  SER193  SER196  TRP342 
 PHE345  PHE346  HIS349  VAL350  TYR365  THR369  GLY372  TYR373 

> <Gold.Protein.RotatedAtoms>
    4.6946   -9.8438    4.9455 H   0  0  0  0  0  0  0  0  0  0  0  0  # atno 1303 bound_to 1298
    1.8005   -9.0368    8.3433 H   0  0  0  0  0  0  0  0  0  0  0  0  # atno 2461 bound_to 2456
   -4.2237   -5.3945    9.3819 H   0  0  0  0  0  0  0  0  0  0  0  0  # atno 2472 bound_to 2467
    2.5973   -7.7256    4.5237 H   0  0  0  0  0  0  0  0  0  0  0  0  # atno 2515 bound_to 2510
   -2.9561  -17.3258   13.0310 H   0  0  0  0  0  0  0  0  0  0  0  0  # atno 3721 bound_to 3712
   -4.4709  -22.1664   11.6458 H   0  0  0  0  0  0  0  0  0  0  0  0  # atno 3767 bound_to 3762
    2.9965  -20.1046    8.4363 H   0  0  0  0  0  0  0  0  0  0  0  0  # atno 3841 bound_to 3832
    3.3622   -9.8015    4.0025 LP  0  0  0  0  0  0  0  0  0  0  0  0  # atno 4297 bound_to 1298
    4.3052   -8.4758    4.1434 LP  0  0  0  0  0  0  0  0  0  0  0  0  # atno 4298 bound_to 1298
    1.5994   -7.9258    7.1632 LP  0  0  0  0  0  0  0  0  0  0  0  0  # atno 4299 bound_to 2456
    0.3380   -8.8457    7.6419 LP  0  0  0  0  0  0  0  0  0  0  0  0  # atno 4300 bound_to 2456
    2.6687   -9.2406    5.1282 LP  0  0  0  0  0  0  0  0  0  0  0  0  # atno 4301 bound_to 2510
    2.0306   -8.0333    6.0237 LP  0  0  0  0  0  0  0  0  0  0  0  0  # atno 4302 bound_to 2510
   -2.6508  -18.0696   14.4208 LP  0  0  0  0  0  0  0  0  0  0  0  0  # atno 4306 bound_to 3712
   -3.4641  -16.6537   14.3978 LP  0  0  0  0  0  0  0  0  0  0  0  0  # atno 4307 bound_to 3712
    2.3019  -21.1218    9.4654 LP  0  0  0  0  0  0  0  0  0  0  0  0  # atno 4314 bound_to 3832
    1.4660  -19.8597    8.8530 LP  0  0  0  0  0  0  0  0  0  0  0  0  # atno 4315 bound_to 3832
   -4.1648  -23.3246   10.5359 LP  0  0  0  0  0  0  0  0  0  0  0  0  # atno 4318 bound_to 3762
   -5.4916  -22.3839   10.3897 LP  0  0  0  0  0  0  0  0  0  0  0  0  # atno 4319 bound_to 3762
   -5.5005   -5.1759    8.3877 LP  0  0  0  0  0  0  0  0  0  0  0  0  # atno 4320 bound_to 2467
   -3.9926   -4.8233    7.8697 LP  0  0  0  0  0  0  0  0  0  0  0  0  # atno 4321 bound_to 2467

> <Gold.Score>
     Score     S(PLP)   S(hbond)     S(cho)   S(metal)  DE(clash)   DE(tors)     intcor
     39.40     -30.50       3.00       0.00       0.00       0.00       0.05       0.01

> <Gold.PLP.Fitness>
39.4019

> <Gold.PLP.PLP>
-30.5003

> <Gold.PLP.part.hbond>
-2.0000

> <Gold.PLP.part.metal>
0.0000

> <Gold.PLP.part.buried>
-3.3490

> <Gold.PLP.part.nonpolar>
-25.4268

> <Gold.PLP.part.repulsive>
0.0432

> <Gold.PLP.ligand.clash>
0.0000

> <Gold.PLP.ligand.torsion>
0.0524

> <Gold.PLP.Chemscore.Hbond>
3.0000

> <Gold.PLP.Chemscore.CHOScore>
0.0000

> <Gold.PLP.Chemscore.Metal>
0.0000

> <Gold.Chemscore.Hbonds>
donor molecule, donor type, donor heavy atom, donor atom, acceptor molecule, acceptor atom, score
      L1  H     7    24       P1  1227  2.00
      L1  H     9    27       P1  1227  1.00

> <Gold.PLP.Chemscore.Internal.Correction>
0.0064

