#       Name:                EN300-260988_i003
#       Creating user name   fsindt
#       Creation time:       Tue Feb 28 10:35:48 2023


#       File generated by GOLD software.
#

@<TRIPOS>MOLECULE
EN300-260988_i003|amine_1|mol2|3993|dock9
    27    26     1
SMALL
USER_CHARGES


@<TRIPOS>ATOM
      1 C1          -0.7989 -11.1513   8.6968 C.3            1 <1>                0.0000
      2 C2           0.5103 -11.8982   8.9597 C.3            1 <1>                0.0000
      3 C3           0.6255 -13.0804   7.9954 C.3            1 <1>                0.0000
      4 C4           1.0924 -12.5790   6.6274 C.3            1 <1>                0.0000
      5 C5           1.6388 -14.0879   8.5424 C.3            1 <1>                0.0000
      6 C6           1.4013 -14.2878  10.0405 C.3            1 <1>                0.0000
      7 N7           2.5419 -15.0053  10.6257 N.4            1 <1>                1.0000
      8 C8           0.1239 -15.1035  10.2499 C.3            1 <1>                0.0000
      9 O9           0.1982 -16.3093   9.4867 O.3            1 <1>                0.0000
     10 H10         -1.6400 -11.8276   8.8491 H              1 <1>                0.0000
     11 H11         -0.8809 -10.3090   9.3838 H              1 <1>                0.0000
     12 H12         -0.8084 -10.7851   7.6702 H              1 <1>                0.0000
     13 H13          1.3513 -11.2218   8.8075 H              1 <1>                0.0000
     14 H14          0.5197 -12.2645   9.9863 H              1 <1>                0.0000
     15 H15         -0.3469 -13.5622   7.8933 H              1 <1>                0.0000
     16 H16          2.0648 -12.0973   6.7294 H              1 <1>                0.0000
     17 H17          1.1744 -13.4212   5.9403 H              1 <1>                0.0000
     18 H18          0.3705 -11.8613   6.2377 H              1 <1>                0.0000
     19 H19          1.5197 -15.0401   8.0254 H              1 <1>                0.0000
     20 H20          2.6489 -13.7110   8.3817 H              1 <1>                0.0000
     21 H21          1.2958 -13.3169  10.5244 H              1 <1>                0.0000
     22 H22          0.0183 -15.3484  11.3068 H              1 <1>                0.0000
     23 H23         -0.7372 -14.5199   9.9243 H              1 <1>                0.0000
     24 H24          3.4025 -14.6038  10.2847 H              1 <1>                0.0000
     25 H25          2.5090 -14.9263  11.6310 H              1 <1>                0.0000
     26 H26          2.4976 -15.9785  10.3631 H              1 <1>                0.0000
     27 H27          0.9833 -16.8433   9.6703 H              1 <1>                0.0000
@<TRIPOS>BOND
    1    1    2 1     
    2    1   10 1     
    3    1   11 1     
    4    1   12 1     
    5    2    3 1     
    6    2   13 1     
    7    2   14 1     
    8    3    4 1     
    9    3    5 1     
   10    3   15 1     
   11    4   16 1     
   12    4   17 1     
   13    4   18 1     
   14    5    6 1     
   15    5   19 1     
   16    5   20 1     
   17    6    7 1     
   18    6    8 1     
   19    6   21 1     
   20    7   24 1     
   21    7   25 1     
   22    7   26 1     
   23    8    9 1     
   24    8   22 1     
   25    8   23 1     
   26    9   27 1     
@<TRIPOS>SUBSTRUCTURE
      1 ****           1
@<TRIPOS>SET
DONOR_HYDROGENS      STATIC     ATOMS    <user>   **** ""
4 24 25 26 27
ATOM$RED        STATIC     ATOMS    COLORGROUP SYSTEM
4 24 25 26 27
@<TRIPOS>COMMENT
> <Gold.Version>
2022.2.0

> <Gold.Id.Protein>
3pbl|protein|mol2

> <Gold.Protein.RotatedTorsions>
[ 1303 1298 1297 1294 ] final  -44.06 input  179.99 | X-H torsion
[ 2461 2456 2455 2452 ] final   43.36 input   30.03 | X-H torsion
[ 2515 2510 2509 2506 ] final   12.37 input  -89.99 | X-H torsion
[ 3721 3712 3711 3710 ] final  -41.79 input -179.91 | X-H torsion
[ 3841 3832 3831 3830 ] final   91.25 input -179.91 | X-H torsion
[ 3767 3762 3761 3758 ] final  -48.80 input  -89.99 | X-H torsion
[ 2472 2467 2466 2463 ] final   17.42 input  -89.97 | X-H torsion

> <Gold.Protein.ActiveResidues>
 VAL82   VAL86   LEU89   PHE106  VAL107  ASP110  VAL111  MET112  CYS114  THR115 
 CYS181  SER182  ILE183  PHE188  VAL189  ILE190  SER192  SER193  SER196  TRP342 
 PHE345  PHE346  HIS349  VAL350  TYR365  THR369  GLY372  TYR373 

> <Gold.Protein.RotatedAtoms>
    3.3882   -9.2128    3.7928 H   0  0  0  0  0  0  0  0  0  0  0  0  # atno 1303 bound_to 1298
    1.7095   -7.9464    7.2223 H   0  0  0  0  0  0  0  0  0  0  0  0  # atno 2461 bound_to 2456
   -3.9917   -4.8241    7.8700 H   0  0  0  0  0  0  0  0  0  0  0  0  # atno 2472 bound_to 2467
    2.4551   -7.5171    4.7541 H   0  0  0  0  0  0  0  0  0  0  0  0  # atno 2515 bound_to 2510
   -2.6735  -17.5631   14.6807 H   0  0  0  0  0  0  0  0  0  0  0  0  # atno 3721 bound_to 3712
   -5.5017  -22.1551   10.6568 H   0  0  0  0  0  0  0  0  0  0  0  0  # atno 3767 bound_to 3762
    2.8556  -20.9167    9.2507 H   0  0  0  0  0  0  0  0  0  0  0  0  # atno 3841 bound_to 3832
    4.7464   -8.6889    4.5327 LP  0  0  0  0  0  0  0  0  0  0  0  0  # atno 4297 bound_to 1298
    4.2278  -10.2196    4.7663 LP  0  0  0  0  0  0  0  0  0  0  0  0  # atno 4298 bound_to 1298
    0.3307   -8.7576    7.5512 LP  0  0  0  0  0  0  0  0  0  0  0  0  # atno 4299 bound_to 2456
    1.6977   -9.1040    8.3745 LP  0  0  0  0  0  0  0  0  0  0  0  0  # atno 4300 bound_to 2456
    2.7698   -9.1176    4.8257 LP  0  0  0  0  0  0  0  0  0  0  0  0  # atno 4301 bound_to 2510
    2.0718   -8.3649    6.0957 LP  0  0  0  0  0  0  0  0  0  0  0  0  # atno 4302 bound_to 2510
   -3.5675  -16.5669   13.7940 LP  0  0  0  0  0  0  0  0  0  0  0  0  # atno 4306 bound_to 3712
   -2.8736  -17.8825   13.1200 LP  0  0  0  0  0  0  0  0  0  0  0  0  # atno 4307 bound_to 3712
    1.3998  -20.2411    9.2354 LP  0  0  0  0  0  0  0  0  0  0  0  0  # atno 4314 bound_to 3832
    2.5308  -19.8023    8.1423 LP  0  0  0  0  0  0  0  0  0  0  0  0  # atno 4315 bound_to 3832
   -4.2071  -22.3980   11.6220 LP  0  0  0  0  0  0  0  0  0  0  0  0  # atno 4318 bound_to 3762
   -4.4188  -23.3218   10.2922 LP  0  0  0  0  0  0  0  0  0  0  0  0  # atno 4319 bound_to 3762
   -4.2248   -5.3940    9.3824 LP  0  0  0  0  0  0  0  0  0  0  0  0  # atno 4320 bound_to 2467
   -5.5004   -5.1754    8.3866 LP  0  0  0  0  0  0  0  0  0  0  0  0  # atno 4321 bound_to 2467

> <Gold.Score>
     Score     S(PLP)   S(hbond)     S(cho)   S(metal)  DE(clash)   DE(tors)     intcor
     37.62     -29.43       3.00       0.00       0.00       0.00       0.40       0.01

> <Gold.PLP.Fitness>
37.6249

> <Gold.PLP.PLP>
-29.4253

> <Gold.PLP.part.hbond>
-2.0000

> <Gold.PLP.part.metal>
0.0000

> <Gold.PLP.part.buried>
-3.6056

> <Gold.PLP.part.nonpolar>
-24.7679

> <Gold.PLP.part.repulsive>
0.0619

> <Gold.PLP.ligand.clash>
0.0000

> <Gold.PLP.ligand.torsion>
0.4034

> <Gold.PLP.Chemscore.Hbond>
3.0000

> <Gold.PLP.Chemscore.CHOScore>
0.0000

> <Gold.PLP.Chemscore.Metal>
0.0000

> <Gold.Chemscore.Hbonds>
donor molecule, donor type, donor heavy atom, donor atom, acceptor molecule, acceptor atom, score
      L1  H     7    26       P1  1227  2.00
      L1  H     9    27       P1  1227  1.00

> <Gold.PLP.Chemscore.Internal.Correction>
0.0064

