#       Name:                EN300-260988_i003
#       Creating user name   fsindt
#       Creation time:       Tue Feb 28 10:35:52 2023


#       File generated by GOLD software.
#

@<TRIPOS>MOLECULE
EN300-260988_i003|amine_1|mol2|3993|dock13
    27    26     1
SMALL
USER_CHARGES


@<TRIPOS>ATOM
      1 C1          -2.3442 -11.2139  10.8132 C.3            1 <1>                0.0000
      2 C2          -1.1581 -12.1802  10.8215 C.3            1 <1>                0.0000
      3 C3          -0.6834 -12.4172   9.3864 C.3            1 <1>                0.0000
      4 C4          -0.6838 -11.0910   8.6236 C.3            1 <1>                0.0000
      5 C5           0.7338 -12.9937   9.4065 C.3            1 <1>                0.0000
      6 C6           0.6690 -14.4967   9.6849 C.3            1 <1>                0.0000
      7 N7           2.0028 -14.9825  10.0633 N.4            1 <1>                1.0000
      8 C8           0.1976 -15.2285   8.4267 C.3            1 <1>                0.0000
      9 O9           0.0592 -16.6223   8.7100 O.3            1 <1>                0.0000
     10 H10         -3.1577 -11.6421  10.2276 H              1 <1>                0.0000
     11 H11         -2.6824 -11.0450  11.8357 H              1 <1>                0.0000
     12 H12         -2.0377 -10.2661  10.3707 H              1 <1>                0.0000
     13 H13         -0.3447 -11.7520  11.4071 H              1 <1>                0.0000
     14 H14         -1.4646 -13.1280  11.2639 H              1 <1>                0.0000
     15 H15         -1.3546 -13.1203   8.8931 H              1 <1>                0.0000
     16 H16         -0.0126 -10.3879   9.1168 H              1 <1>                0.0000
     17 H17         -0.3457 -11.2598   7.6011 H              1 <1>                0.0000
     18 H18         -1.6933 -10.6804   8.6091 H              1 <1>                0.0000
     19 H19          1.2091 -12.8232   8.4405 H              1 <1>                0.0000
     20 H20          1.3141 -12.5039  10.1885 H              1 <1>                0.0000
     21 H21         -0.0309 -14.6857  10.4988 H              1 <1>                0.0000
     22 H22         -0.7641 -14.8248   8.1104 H              1 <1>                0.0000
     23 H23          0.9292 -15.0905   7.6306 H              1 <1>                0.0000
     24 H24          2.6947 -14.2898   9.8195 H              1 <1>                0.0000
     25 H25          2.0301 -15.1497  11.0579 H              1 <1>                0.0000
     26 H26          2.1994 -15.8418   9.5722 H              1 <1>                0.0000
     27 H27          0.8036 -17.0003   9.1980 H              1 <1>                0.0000
@<TRIPOS>BOND
    1    1    2 1     
    2    1   10 1     
    3    1   11 1     
    4    1   12 1     
    5    2    3 1     
    6    2   13 1     
    7    2   14 1     
    8    3    4 1     
    9    3    5 1     
   10    3   15 1     
   11    4   16 1     
   12    4   17 1     
   13    4   18 1     
   14    5    6 1     
   15    5   19 1     
   16    5   20 1     
   17    6    7 1     
   18    6    8 1     
   19    6   21 1     
   20    7   24 1     
   21    7   25 1     
   22    7   26 1     
   23    8    9 1     
   24    8   22 1     
   25    8   23 1     
   26    9   27 1     
@<TRIPOS>SUBSTRUCTURE
      1 ****           1
@<TRIPOS>SET
DONOR_HYDROGENS      STATIC     ATOMS    <user>   **** ""
4 24 25 26 27
ATOM$RED        STATIC     ATOMS    COLORGROUP SYSTEM
4 24 25 26 27
@<TRIPOS>COMMENT
> <Gold.Version>
2022.2.0

> <Gold.Id.Protein>
3pbl|protein|mol2

> <Gold.Protein.RotatedTorsions>
[ 1303 1298 1297 1294 ] final    0.47 input  179.99 | X-H torsion
[ 2461 2456 2455 2452 ] final  115.73 input   30.03 | X-H torsion
[ 2515 2510 2509 2506 ] final  131.86 input  -89.99 | X-H torsion
[ 3721 3712 3711 3710 ] final -143.76 input -179.91 | X-H torsion
[ 3841 3832 3831 3830 ] final -167.75 input -179.91 | X-H torsion
[ 3767 3762 3761 3758 ] final  -41.34 input  -89.99 | X-H torsion
[ 2472 2467 2466 2463 ] final  -59.66 input  -89.97 | X-H torsion

> <Gold.Protein.ActiveResidues>
 VAL82   VAL86   LEU89   PHE106  VAL107  ASP110  VAL111  MET112  CYS114  THR115 
 CYS181  SER182  ILE183  PHE188  VAL189  ILE190  SER192  SER193  SER196  TRP342 
 PHE345  PHE346  HIS349  VAL350  TYR365  THR369  GLY372  TYR373 

> <Gold.Protein.RotatedAtoms>
    3.3886   -9.8787    4.0515 H   0  0  0  0  0  0  0  0  0  0  0  0  # atno 1303 bound_to 1298
    2.1388   -8.5946    8.0197 H   0  0  0  0  0  0  0  0  0  0  0  0  # atno 2461 bound_to 2456
   -3.7246   -5.1859    8.9555 H   0  0  0  0  0  0  0  0  0  0  0  0  # atno 2472 bound_to 2467
    2.0704   -8.3565    6.0950 H   0  0  0  0  0  0  0  0  0  0  0  0  # atno 2515 bound_to 2510
   -3.3123  -16.5412   14.0812 H   0  0  0  0  0  0  0  0  0  0  0  0  # atno 3721 bound_to 3712
   -5.5109  -22.2283   10.5587 H   0  0  0  0  0  0  0  0  0  0  0  0  # atno 3767 bound_to 3762
    2.8388  -19.9164    8.3654 H   0  0  0  0  0  0  0  0  0  0  0  0  # atno 3841 bound_to 3832
    4.2269   -8.4779    4.0898 LP  0  0  0  0  0  0  0  0  0  0  0  0  # atno 4297 bound_to 1298
    4.7470   -9.7645    4.9505 LP  0  0  0  0  0  0  0  0  0  0  0  0  # atno 4298 bound_to 1298
    0.9752   -8.0128    7.0322 LP  0  0  0  0  0  0  0  0  0  0  0  0  # atno 4299 bound_to 2456
    0.6241   -9.2007    8.0963 LP  0  0  0  0  0  0  0  0  0  0  0  0  # atno 4300 bound_to 2456
    2.4586   -7.5207    4.7472 LP  0  0  0  0  0  0  0  0  0  0  0  0  # atno 4301 bound_to 2510
    2.7678   -9.1219    4.8326 LP  0  0  0  0  0  0  0  0  0  0  0  0  # atno 4302 bound_to 2510
   -2.9927  -17.6920   13.0082 LP  0  0  0  0  0  0  0  0  0  0  0  0  # atno 4306 bound_to 3712
   -2.7108  -17.9373   14.5978 LP  0  0  0  0  0  0  0  0  0  0  0  0  # atno 4307 bound_to 3712
    2.5536  -21.1579    9.3419 LP  0  0  0  0  0  0  0  0  0  0  0  0  # atno 4314 bound_to 3832
    1.3965  -20.0410    9.0584 LP  0  0  0  0  0  0  0  0  0  0  0  0  # atno 4315 bound_to 3832
   -4.2926  -22.3125   11.6429 LP  0  0  0  0  0  0  0  0  0  0  0  0  # atno 4318 bound_to 3762
   -4.3242  -23.3341   10.3693 LP  0  0  0  0  0  0  0  0  0  0  0  0  # atno 4319 bound_to 3762
   -5.3436   -5.3879    9.0239 LP  0  0  0  0  0  0  0  0  0  0  0  0  # atno 4320 bound_to 2467
   -4.6485   -4.8198    7.6598 LP  0  0  0  0  0  0  0  0  0  0  0  0  # atno 4321 bound_to 2467

> <Gold.Score>
     Score     S(PLP)   S(hbond)     S(cho)   S(metal)  DE(clash)   DE(tors)     intcor
     36.88     -28.82       3.00       0.00       0.00       0.00       0.47       0.01

> <Gold.PLP.Fitness>
36.8771

> <Gold.PLP.PLP>
-28.8165

> <Gold.PLP.part.hbond>
-2.0000

> <Gold.PLP.part.metal>
0.0000

> <Gold.PLP.part.buried>
-2.9071

> <Gold.PLP.part.nonpolar>
-24.4102

> <Gold.PLP.part.repulsive>
0.0556

> <Gold.PLP.ligand.clash>
0.0000

> <Gold.PLP.ligand.torsion>
0.4729

> <Gold.PLP.Chemscore.Hbond>
3.0000

> <Gold.PLP.Chemscore.CHOScore>
0.0000

> <Gold.PLP.Chemscore.Metal>
0.0000

> <Gold.Chemscore.Hbonds>
donor molecule, donor type, donor heavy atom, donor atom, acceptor molecule, acceptor atom, score
      L1  H     7    26       P1  1227  2.00
      L1  H     9    27       P1  1227  1.00

> <Gold.PLP.Chemscore.Internal.Correction>
0.0064

