#       Name:                EN300-260988_i003
#       Creating user name   fsindt
#       Creation time:       Tue Feb 28 10:35:53 2023


#       File generated by GOLD software.
#

@<TRIPOS>MOLECULE
EN300-260988_i003|amine_1|mol2|3993|dock14
    27    26     1
SMALL
USER_CHARGES


@<TRIPOS>ATOM
      1 C1           1.6963 -11.7239   5.6870 C.3            1 <1>                0.0000
      2 C2           0.7695 -11.4378   6.8702 C.3            1 <1>                0.0000
      3 C3           0.9950 -12.4875   7.9602 C.3            1 <1>                0.0000
      4 C4           0.1558 -12.1343   9.1897 C.3            1 <1>                0.0000
      5 C5           0.5790 -13.8637   7.4369 C.3            1 <1>                0.0000
      6 C6           0.3992 -14.8241   8.6142 C.3            1 <1>                0.0000
      7 N7           1.6858 -15.0043   9.3000 N.4            1 <1>                1.0000
      8 C8          -0.0975 -16.1761   8.0982 C.3            1 <1>                0.0000
      9 O9          -0.1465 -17.1096   9.1790 O.3            1 <1>                0.0000
     10 H10          1.4801 -12.7148   5.2875 H              1 <1>                0.0000
     11 H11          1.5355 -10.9761   4.9105 H              1 <1>                0.0000
     12 H12          2.7334 -11.6848   6.0201 H              1 <1>                0.0000
     13 H13          0.9855 -10.4469   7.2697 H              1 <1>                0.0000
     14 H14         -0.2677 -11.4770   6.5371 H              1 <1>                0.0000
     15 H15          2.0500 -12.5065   8.2336 H              1 <1>                0.0000
     16 H16         -0.8992 -12.1154   8.9164 H              1 <1>                0.0000
     17 H17          0.3165 -12.8821   9.9664 H              1 <1>                0.0000
     18 H18          0.4522 -11.1540   9.5627 H              1 <1>                0.0000
     19 H19         -0.3613 -13.7763   6.8924 H              1 <1>                0.0000
     20 H20          1.3509 -14.2473   6.7697 H              1 <1>                0.0000
     21 H21         -0.3296 -14.4114   9.3117 H              1 <1>                0.0000
     22 H22         -1.0946 -16.0590   7.6738 H              1 <1>                0.0000
     23 H23          0.5832 -16.5443   7.3307 H              1 <1>                0.0000
     24 H24          1.5504 -14.9207  10.2964 H              1 <1>                0.0000
     25 H25          2.0556 -15.9184   9.0863 H              1 <1>                0.0000
     26 H26          2.3349 -14.2976   8.9882 H              1 <1>                0.0000
     27 H27          0.7017 -17.2403   9.6247 H              1 <1>                0.0000
@<TRIPOS>BOND
    1    1    2 1     
    2    1   10 1     
    3    1   11 1     
    4    1   12 1     
    5    2    3 1     
    6    2   13 1     
    7    2   14 1     
    8    3    4 1     
    9    3    5 1     
   10    3   15 1     
   11    4   16 1     
   12    4   17 1     
   13    4   18 1     
   14    5    6 1     
   15    5   19 1     
   16    5   20 1     
   17    6    7 1     
   18    6    8 1     
   19    6   21 1     
   20    7   24 1     
   21    7   25 1     
   22    7   26 1     
   23    8    9 1     
   24    8   22 1     
   25    8   23 1     
   26    9   27 1     
@<TRIPOS>SUBSTRUCTURE
      1 ****           1
@<TRIPOS>SET
DONOR_HYDROGENS      STATIC     ATOMS    <user>   **** ""
4 24 25 26 27
ATOM$RED        STATIC     ATOMS    COLORGROUP SYSTEM
4 24 25 26 27
@<TRIPOS>COMMENT
> <Gold.Version>
2022.2.0

> <Gold.Id.Protein>
3pbl|protein|mol2

> <Gold.Protein.RotatedTorsions>
[ 1303 1298 1297 1294 ] final   -0.00 input  179.99 | X-H torsion
[ 2461 2456 2455 2452 ] final -130.32 input   30.03 | X-H torsion
[ 2515 2510 2509 2506 ] final   49.18 input  -89.99 | X-H torsion
[ 3721 3712 3711 3710 ] final  -92.92 input -179.91 | X-H torsion
[ 3841 3832 3831 3830 ] final  -55.32 input -179.91 | X-H torsion
[ 3767 3762 3761 3758 ] final   17.99 input  -89.99 | X-H torsion
[ 2472 2467 2466 2463 ] final   85.17 input  -89.97 | X-H torsion

> <Gold.Protein.ActiveResidues>
 VAL82   VAL86   LEU89   PHE106  VAL107  ASP110  VAL111  MET112  CYS114  THR115 
 CYS181  SER182  ILE183  PHE188  VAL189  ILE190  SER192  SER193  SER196  TRP342 
 PHE345  PHE346  HIS349  VAL350  TYR365  THR369  GLY372  TYR373 

> <Gold.Protein.RotatedAtoms>
    3.3861   -9.8725    4.0473 H   0  0  0  0  0  0  0  0  0  0  0  0  # atno 1303 bound_to 1298
    0.6981   -9.2329    8.1544 H   0  0  0  0  0  0  0  0  0  0  0  0  # atno 2461 bound_to 2456
   -5.0340   -4.8984    7.7580 H   0  0  0  0  0  0  0  0  0  0  0  0  # atno 2472 bound_to 2467
    2.2092   -7.4195    5.2872 H   0  0  0  0  0  0  0  0  0  0  0  0  # atno 2515 bound_to 2510
   -3.0460  -16.9152   14.6663 H   0  0  0  0  0  0  0  0  0  0  0  0  # atno 3721 bound_to 3712
   -5.1338  -22.9298   10.0722 H   0  0  0  0  0  0  0  0  0  0  0  0  # atno 3767 bound_to 3762
    1.5927  -19.8554    9.0824 H   0  0  0  0  0  0  0  0  0  0  0  0  # atno 3841 bound_to 3832
    4.2334   -8.4774    4.0941 LP  0  0  0  0  0  0  0  0  0  0  0  0  # atno 4297 bound_to 1298
    4.7429   -9.7712    4.9503 LP  0  0  0  0  0  0  0  0  0  0  0  0  # atno 4298 bound_to 1298
    2.1549   -8.5225    7.9531 LP  0  0  0  0  0  0  0  0  0  0  0  0  # atno 4299 bound_to 2456
    0.8846   -8.0530    7.0407 LP  0  0  0  0  0  0  0  0  0  0  0  0  # atno 4300 bound_to 2456
    2.8351   -8.6678    4.4411 LP  0  0  0  0  0  0  0  0  0  0  0  0  # atno 4301 bound_to 2510
    2.2526   -8.9123    5.9469 LP  0  0  0  0  0  0  0  0  0  0  0  0  # atno 4302 bound_to 2510
   -3.3927  -16.9797   13.0999 LP  0  0  0  0  0  0  0  0  0  0  0  0  # atno 4306 bound_to 3712
   -2.6183  -18.2178   13.8307 LP  0  0  0  0  0  0  0  0  0  0  0  0  # atno 4307 bound_to 3712
    2.9026  -20.1147    8.1918 LP  0  0  0  0  0  0  0  0  0  0  0  0  # atno 4314 bound_to 3832
    2.4869  -21.1546    9.3802 LP  0  0  0  0  0  0  0  0  0  0  0  0  # atno 4315 bound_to 3832
   -5.0861  -21.9169   11.3523 LP  0  0  0  0  0  0  0  0  0  0  0  0  # atno 4318 bound_to 3762
   -3.9077  -23.0284   11.1463 LP  0  0  0  0  0  0  0  0  0  0  0  0  # atno 4319 bound_to 3762
   -3.6346   -5.0424    8.5871 LP  0  0  0  0  0  0  0  0  0  0  0  0  # atno 4320 bound_to 2467
   -5.0484   -5.4527    9.2939 LP  0  0  0  0  0  0  0  0  0  0  0  0  # atno 4321 bound_to 2467

> <Gold.Score>
     Score     S(PLP)   S(hbond)     S(cho)   S(metal)  DE(clash)   DE(tors)     intcor
     40.97     -32.31       3.00       0.00       0.00       0.00       0.17       0.01

> <Gold.PLP.Fitness>
40.9725

> <Gold.PLP.PLP>
-32.3084

> <Gold.PLP.part.hbond>
-2.0000

> <Gold.PLP.part.metal>
0.0000

> <Gold.PLP.part.buried>
-3.0461

> <Gold.PLP.part.nonpolar>
-28.0801

> <Gold.PLP.part.repulsive>
0.0560

> <Gold.PLP.ligand.clash>
0.0000

> <Gold.PLP.ligand.torsion>
0.1712

> <Gold.PLP.Chemscore.Hbond>
3.0000

> <Gold.PLP.Chemscore.CHOScore>
0.0000

> <Gold.PLP.Chemscore.Metal>
0.0000

> <Gold.Chemscore.Hbonds>
donor molecule, donor type, donor heavy atom, donor atom, acceptor molecule, acceptor atom, score
      L1  H     7    25       P1  1227  2.00
      L1  H     9    27       P1  1227  1.00

> <Gold.PLP.Chemscore.Internal.Correction>
0.0064

