#       Name:                EN300-260988_i003
#       Creating user name   fsindt
#       Creation time:       Tue Feb 28 10:35:59 2023


#       File generated by GOLD software.
#

@<TRIPOS>MOLECULE
EN300-260988_i003|amine_1|mol2|3993|dock19
    27    26     1
SMALL
USER_CHARGES


@<TRIPOS>ATOM
      1 C1          -3.8160 -10.1622   9.7552 C.3            1 <1>                0.0000
      2 C2          -2.7369 -10.2305  10.8376 C.3            1 <1>                0.0000
      3 C3          -1.3594 -10.3287  10.1789 C.3            1 <1>                0.0000
      4 C4          -0.2953  -9.7953  11.1401 C.3            1 <1>                0.0000
      5 C5          -1.0573 -11.7908   9.8440 C.3            1 <1>                0.0000
      6 C6           0.2678 -11.8766   9.0841 C.3            1 <1>                0.0000
      7 N7           0.1766 -11.0852   7.8498 N.4            1 <1>                1.0000
      8 C8           0.5609 -13.3368   8.7332 C.3            1 <1>                0.0000
      9 O9           0.6853 -14.0997   9.9351 O.3            1 <1>                0.0000
     10 H10         -3.7708 -11.0608   9.1398 H              1 <1>                0.0000
     11 H11         -4.7974 -10.0923  10.2245 H              1 <1>                0.0000
     12 H12         -3.6487  -9.2850   9.1302 H              1 <1>                0.0000
     13 H13         -2.7821  -9.3321  11.4530 H              1 <1>                0.0000
     14 H14         -2.9041 -11.1078  11.4625 H              1 <1>                0.0000
     15 H15         -1.3514  -9.7373   9.2634 H              1 <1>                0.0000
     16 H16         -0.3032 -10.3868  12.0556 H              1 <1>                0.0000
     17 H17          0.6861  -9.8652  10.6709 H              1 <1>                0.0000
     18 H18         -0.5105  -8.7537  11.3786 H              1 <1>                0.0000
     19 H19         -0.9852 -12.3673  10.7663 H              1 <1>                0.0000
     20 H20         -1.8582 -12.1947   9.2248 H              1 <1>                0.0000
     21 H21          1.0708 -11.4848   9.7084 H              1 <1>                0.0000
     22 H22         -0.2553 -13.7368   8.1318 H              1 <1>                0.0000
     23 H23          1.4911 -13.3949   8.1680 H              1 <1>                0.0000
     24 H24          0.4019 -10.1224   8.0502 H              1 <1>                0.0000
     25 H25          0.8267 -11.4481   7.1688 H              1 <1>                0.0000
     26 H26         -0.7616 -11.1418   7.4827 H              1 <1>                0.0000
     27 H27         -0.1347 -14.1705  10.4427 H              1 <1>                0.0000
@<TRIPOS>BOND
    1    1    2 1     
    2    1   10 1     
    3    1   11 1     
    4    1   12 1     
    5    2    3 1     
    6    2   13 1     
    7    2   14 1     
    8    3    4 1     
    9    3    5 1     
   10    3   15 1     
   11    4   16 1     
   12    4   17 1     
   13    4   18 1     
   14    5    6 1     
   15    5   19 1     
   16    5   20 1     
   17    6    7 1     
   18    6    8 1     
   19    6   21 1     
   20    7   24 1     
   21    7   25 1     
   22    7   26 1     
   23    8    9 1     
   24    8   22 1     
   25    8   23 1     
   26    9   27 1     
@<TRIPOS>SUBSTRUCTURE
      1 ****           1
@<TRIPOS>SET
DONOR_HYDROGENS      STATIC     ATOMS    <user>   **** ""
4 24 25 26 27
ATOM$RED        STATIC     ATOMS    COLORGROUP SYSTEM
4 24 25 26 27
@<TRIPOS>COMMENT
> <Gold.Version>
2022.2.0

> <Gold.Id.Protein>
3pbl|protein|mol2

> <Gold.Protein.RotatedTorsions>
[ 1303 1298 1297 1294 ] final   40.84 input  179.99 | X-H torsion
[ 2461 2456 2455 2452 ] final   14.13 input   30.03 | X-H torsion
[ 2515 2510 2509 2506 ] final  -79.25 input  -89.99 | X-H torsion
[ 3721 3712 3711 3710 ] final   56.00 input -179.91 | X-H torsion
[ 3841 3832 3831 3830 ] final  -42.48 input -179.91 | X-H torsion
[ 3767 3762 3761 3758 ] final  -31.09 input  -89.99 | X-H torsion
[ 2472 2467 2466 2463 ] final  149.96 input  -89.97 | X-H torsion

> <Gold.Protein.ActiveResidues>
 VAL82   VAL86   LEU89   PHE106  VAL107  ASP110  VAL111  MET112  CYS114  THR115 
 CYS181  SER182  ILE183  PHE188  VAL189  ILE190  SER192  SER193  SER196  TRP342 
 PHE345  PHE346  HIS349  VAL350  TYR365  THR369  GLY372  TYR373 

> <Gold.Protein.RotatedAtoms>
    3.7573  -10.2395    4.4477 H   0  0  0  0  0  0  0  0  0  0  0  0  # atno 1303 bound_to 1298
    1.2650   -7.9323    7.0530 H   0  0  0  0  0  0  0  0  0  0  0  0  # atno 2461 bound_to 2456
   -5.5074   -5.2466    8.5797 H   0  0  0  0  0  0  0  0  0  0  0  0  # atno 2472 bound_to 2467
    2.8344   -8.7903    4.5058 H   0  0  0  0  0  0  0  0  0  0  0  0  # atno 2515 bound_to 2510
   -2.5710  -17.9354   13.4337 H   0  0  0  0  0  0  0  0  0  0  0  0  # atno 3721 bound_to 3712
   -5.5014  -22.3396   10.4327 H   0  0  0  0  0  0  0  0  0  0  0  0  # atno 3767 bound_to 3762
    1.5626  -19.9883    9.2200 H   0  0  0  0  0  0  0  0  0  0  0  0  # atno 3841 bound_to 3832
    3.6937   -8.7340    3.8186 LP  0  0  0  0  0  0  0  0  0  0  0  0  # atno 4297 bound_to 1298
    4.9113   -9.1476    4.8252 LP  0  0  0  0  0  0  0  0  0  0  0  0  # atno 4298 bound_to 1298
    0.4439   -9.0641    7.8970 LP  0  0  0  0  0  0  0  0  0  0  0  0  # atno 4299 bound_to 2456
    2.0289   -8.8115    8.1979 LP  0  0  0  0  0  0  0  0  0  0  0  0  # atno 4300 bound_to 2456
    2.2015   -8.8003    6.0108 LP  0  0  0  0  0  0  0  0  0  0  0  0  # atno 4301 bound_to 2510
    2.2607   -7.4083    5.1590 LP  0  0  0  0  0  0  0  0  0  0  0  0  # atno 4302 bound_to 2510
   -3.0170  -17.3614   14.8653 LP  0  0  0  0  0  0  0  0  0  0  0  0  # atno 4306 bound_to 3712
   -3.5424  -16.6582   13.4883 LP  0  0  0  0  0  0  0  0  0  0  0  0  # atno 4307 bound_to 3712
    2.7566  -19.9644    8.1476 LP  0  0  0  0  0  0  0  0  0  0  0  0  # atno 4314 bound_to 3832
    2.6677  -21.1514    9.2655 LP  0  0  0  0  0  0  0  0  0  0  0  0  # atno 4315 bound_to 3832
   -4.4211  -22.2040   11.6499 LP  0  0  0  0  0  0  0  0  0  0  0  0  # atno 4318 bound_to 3762
   -4.2052  -23.3314   10.4883 LP  0  0  0  0  0  0  0  0  0  0  0  0  # atno 4319 bound_to 3762
   -4.1656   -4.8033    7.7616 LP  0  0  0  0  0  0  0  0  0  0  0  0  # atno 4320 bound_to 2467
   -4.0441   -5.3436    9.2978 LP  0  0  0  0  0  0  0  0  0  0  0  0  # atno 4321 bound_to 2467

> <Gold.Score>
     Score     S(PLP)   S(hbond)     S(cho)   S(metal)  DE(clash)   DE(tors)     intcor
     37.81     -35.36       1.00       0.00       0.00       0.00       0.28       0.01

> <Gold.PLP.Fitness>
37.8097

> <Gold.PLP.PLP>
-35.3640

> <Gold.PLP.part.hbond>
-1.0000

> <Gold.PLP.part.metal>
0.0000

> <Gold.PLP.part.buried>
-3.6639

> <Gold.PLP.part.nonpolar>
-31.4627

> <Gold.PLP.part.repulsive>
0.0005

> <Gold.PLP.ligand.clash>
0.0000

> <Gold.PLP.ligand.torsion>
0.2804

> <Gold.PLP.Chemscore.Hbond>
1.0000

> <Gold.PLP.Chemscore.CHOScore>
0.0000

> <Gold.PLP.Chemscore.Metal>
0.0000

> <Gold.Chemscore.Hbonds>
donor molecule, donor type, donor heavy atom, donor atom, acceptor molecule, acceptor atom, score
      L1  H     7    24       P1  2456  1.00

> <Gold.PLP.Chemscore.Internal.Correction>
0.0064

