#       Name:                plp ligand
#       Creating user name   fsindt
#       Creation time:       Tue Feb 28 10:35:38 2023


#       File generated by GOLD software.
#

@<TRIPOS>MOLECULE
plp ligand
    27    26     1
SMALL
USER_CHARGES


@<TRIPOS>ATOM
      1 C1           3.4440   0.3307   0.0535 NONPOLAR       1 <1>                0.0000
      2 C2           2.2002  -0.1752   0.7869 NONPOLAR       1 <1>                0.0000
      3 C3           0.9648   0.0543  -0.0861 NONPOLAR       1 <1>                0.0000
      4 C4           1.0666  -0.8030  -1.3492 NONPOLAR       1 <1>                0.0000
      5 C5          -0.2915  -0.3359   0.6953 NONPOLAR       1 <1>                0.0000
      6 C6          -1.5329   0.0096  -0.1295 NONPOLAR       1 <1>                0.0000
      7 N7          -1.6179   1.4663  -0.2997 DONOR          1 <1>                1.0000
      8 C8          -2.7830  -0.4930   0.5955 NONPOLAR       1 <1>                0.0000
      9 O9          -3.9308  -0.2748  -0.2272 DONACC         1 <1>                0.0000
     10 H10          3.3368   1.3959  -0.1515                1 <1>                0.0000
     11 H11          4.3241   0.1672   0.6755                1 <1>                0.0000
     12 H12          3.5572  -0.2105  -0.8858                1 <1>                0.0000
     13 H13          2.3074  -1.2403   0.9920                1 <1>                0.0000
     14 H14          2.0869   0.3661   1.7262                1 <1>                0.0000
     15 H15          0.9071   1.1065  -0.3647                1 <1>                0.0000
     16 H16          1.1242  -1.8552  -1.0706                1 <1>                0.0000
     17 H17          0.1865  -0.6395  -1.9712                1 <1>                0.0000
     18 H18          1.9615  -0.5250  -1.9059                1 <1>                0.0000
     19 H19         -0.2758  -1.4070   0.8970                1 <1>                0.0000
     20 H20         -0.3176   0.2110   1.6378                1 <1>                0.0000
     21 H21         -1.4637  -0.4670  -1.1073                1 <1>                0.0000
     22 H22         -2.6803  -1.5585   0.8007                1 <1>                0.0000
     23 H23         -2.9007   0.0482   1.5343                1 <1>                0.0000
     24 H24         -0.7935   1.7977  -0.7778                1 <1>                0.0000
     25 H25         -2.4366   1.6941  -0.8436                1 <1>                0.0000
     26 H26         -1.6820   1.9074   0.6055                1 <1>                0.0000
     27 H27         -4.7615  -0.5702   0.1701                1 <1>                0.0000
@<TRIPOS>BOND
    1    1    2 1     
    2    1   10 1     
    3    1   11 1     
    4    1   12 1     
    5    2    3 1     
    6    2   13 1     
    7    2   14 1     
    8    3    4 1     
    9    3    5 1     
   10    3   15 1     
   11    4   16 1     
   12    4   17 1     
   13    4   18 1     
   14    5    6 1     
   15    5   19 1     
   16    5   20 1     
   17    6    7 1     
   18    6    8 1     
   19    6   21 1     
   20    7   24 1     
   21    7   25 1     
   22    7   26 1     
   23    8    9 1     
   24    8   22 1     
   25    8   23 1     
   26    9   27 1     
@<TRIPOS>SUBSTRUCTURE
      1 ****           1
@<TRIPOS>SET
DONOR_HYDROGENS      STATIC     ATOMS    <user>   **** ""
4 24 25 26 27
ATOM$RED        STATIC     ATOMS    COLORGROUP SYSTEM
4 24 25 26 27
