#       Name:                EN300-97589_i001
#       Creating user name   aseyller
#       Creation time:       Fri Apr 21 16:34:57 2023


#       File generated by GOLD software.
#

@<TRIPOS>MOLECULE
EN300-97589_i001|aminophenols|mol2|63|dock14
    21    21     1
SMALL
USER_CHARGES


@<TRIPOS>ATOM
      1 C1          28.7852  36.6789  40.3676 C.3            1 <1>                0.0000
      2 C2          29.8384  36.3380  39.3449 C.ar           1 <1>                0.0000
      3 C3          30.3163  35.0439  39.2524 C.ar           1 <1>                0.0000
      4 C4          31.2829  34.7252  38.3162 C.ar           1 <1>                0.0000
      5 C5          31.8008  33.3134  38.2191 C.3            1 <1>                0.0000
      6 C6          31.7749  35.7031  37.4677 C.ar           1 <1>                0.0000
      7 O7          32.7253  35.3909  36.5463 O.3            1 <1>                0.0000
      8 C8          31.2935  37.0072  37.5600 C.ar           1 <1>                0.0000
      9 N9          31.7870  37.9995  36.7052 N.pl3          1 <1>                0.0000
     10 C10         30.3200  37.3184  38.4981 C.ar           1 <1>                0.0000
     11 H11         29.2665  36.9838  41.2969 H              1 <1>                0.0000
     12 H12         28.1668  37.4950  39.9939 H              1 <1>                0.0000
     13 H13         28.1608  35.8047  40.5516 H              1 <1>                0.0000
     14 H14         29.9338  34.2801  39.9131 H              1 <1>                0.0000
     15 H15         31.1908  32.7504  37.5125 H              1 <1>                0.0000
     16 H16         32.8349  33.3286  37.8746 H              1 <1>                0.0000
     17 H17         31.7513  32.8399  39.1995 H              1 <1>                0.0000
     18 H18         29.9447  38.3284  38.5723 H              1 <1>                0.0000
     19 H19         32.4569  35.5576  35.6323 H              1 <1>                0.0000
     20 H20         32.4651  37.7797  36.0474 H              1 <1>                0.0000
     21 H21         31.4509  38.9071  36.7706 H              1 <1>                0.0000
@<TRIPOS>BOND
    1    1    2 1     
    2    1   11 1     
    3    1   12 1     
    4    1   13 1     
    5    2    3 ar    
    6    2   10 ar    
    7    3    4 ar    
    8    3   14 1     
    9    4    5 1     
   10    4    6 ar    
   11    5   15 1     
   12    5   16 1     
   13    5   17 1     
   14    6    7 1     
   15    6    8 ar    
   16    7   19 1     
   17    8    9 1     
   18    8   10 ar    
   19    9   20 1     
   20    9   21 1     
   21   10   18 1     
@<TRIPOS>SUBSTRUCTURE
      1 ****           1
@<TRIPOS>SET
DONOR_HYDROGENS      STATIC     ATOMS    <user>   **** ""
3 19 20 21
ATOM$RED        STATIC     ATOMS    COLORGROUP SYSTEM
3 19 20 21
@<TRIPOS>COMMENT
> <Gold.Version>
2022.2.0

> <Gold.Id.Protein>
1qkm|1qkm_protein|mol2

> <Gold.Protein.RotatedTorsions>
[  496  491  490  487 ] final -122.29 input  -89.99 | X-H torsion

> <Gold.Protein.ActiveResidues>
 MET295  LEU298  THR299  LEU301  ALA302  GLU305  TRP335  MET336  LEU339  MET340 
 GLY342  LEU343  ARG346  PHE356  ILE373  ILE376  PHE377  LEU380  LYS471  GLY472 
 MET473  HIS475  LEU476  LEU477  ASN478  MET479  VAL484  VAL487 

> <Gold.Protein.RotatedAtoms>
   37.0449   34.3263   40.7867 H   0  0  0  0  0  0  0  0  0  0  0  0  # atno 496  bound_to 491 

> <Gold.Score>
     Score     S(PLP)   S(hbond)     S(cho)   S(metal)  DE(clash)   DE(tors)     intcor
     33.43     -33.43       0.00       0.00       0.00       0.00       0.00       0.00

> <Gold.PLP.Fitness>
33.4328

> <Gold.PLP.PLP>
-33.4328

> <Gold.PLP.part.hbond>
0.0000

> <Gold.PLP.part.metal>
0.0000

> <Gold.PLP.part.buried>
-1.9258

> <Gold.PLP.part.nonpolar>
-31.7981

> <Gold.PLP.part.repulsive>
0.0000

> <Gold.PLP.ligand.clash>
0.0000

> <Gold.PLP.ligand.torsion>
0.0000

> <Gold.PLP.Chemscore.Hbond>
0.0000

> <Gold.PLP.Chemscore.CHOScore>
0.0000

> <Gold.PLP.Chemscore.Metal>
0.0000

> <Gold.PLP.Chemscore.Internal.Correction>
0.0000

