#       Name:                EN300-97589_i001
#       Creating user name   aseyller
#       Creation time:       Fri Apr 21 16:34:58 2023


#       File generated by GOLD software.
#

@<TRIPOS>MOLECULE
EN300-97589_i001|aminophenols|mol2|63|dock18
    21    21     1
SMALL
USER_CHARGES


@<TRIPOS>ATOM
      1 C1          28.8088  39.3716  36.6753 C.3            1 <1>                0.0000
      2 C2          29.3712  38.1527  37.3604 C.ar           1 <1>                0.0000
      3 C3          30.7264  37.8874  37.2925 C.ar           1 <1>                0.0000
      4 C4          31.2482  36.7703  37.9188 C.ar           1 <1>                0.0000
      5 C5          32.7259  36.4851  37.8420 C.3            1 <1>                0.0000
      6 C6          30.4130  35.9137  38.6167 C.ar           1 <1>                0.0000
      7 O7          30.9249  34.8149  39.2334 O.3            1 <1>                0.0000
      8 C8          29.0474  36.1807  38.6860 C.ar           1 <1>                0.0000
      9 N9          28.1987  35.3186  39.3898 N.pl3          1 <1>                0.0000
     10 C10         28.5319  37.3060  38.0596 C.ar           1 <1>                0.0000
     11 H11         28.5227  39.1154  35.6552 H              1 <1>                0.0000
     12 H12         27.9331  39.7233  37.2209 H              1 <1>                0.0000
     13 H13         29.5637  40.1575  36.6545 H              1 <1>                0.0000
     14 H14         31.3791  38.5541  36.7488 H              1 <1>                0.0000
     15 H15         33.2326  36.9659  38.6788 H              1 <1>                0.0000
     16 H16         32.8910  35.4086  37.8875 H              1 <1>                0.0000
     17 H17         33.1229  36.8743  36.9046 H              1 <1>                0.0000
     18 H18         27.4737  37.5159  38.1114 H              1 <1>                0.0000
     19 H19         31.2242  34.9756  40.1389 H              1 <1>                0.0000
     20 H20         28.5611  34.5340  39.8303 H              1 <1>                0.0000
     21 H21         27.2481  35.5057  39.4372 H              1 <1>                0.0000
@<TRIPOS>BOND
    1    1    2 1     
    2    1   11 1     
    3    1   12 1     
    4    1   13 1     
    5    2    3 ar    
    6    2   10 ar    
    7    3    4 ar    
    8    3   14 1     
    9    4    5 1     
   10    4    6 ar    
   11    5   15 1     
   12    5   16 1     
   13    5   17 1     
   14    6    7 1     
   15    6    8 ar    
   16    7   19 1     
   17    8    9 1     
   18    8   10 ar    
   19    9   20 1     
   20    9   21 1     
   21   10   18 1     
@<TRIPOS>SUBSTRUCTURE
      1 ****           1
@<TRIPOS>SET
DONOR_HYDROGENS      STATIC     ATOMS    <user>   **** ""
3 19 20 21
ATOM$RED        STATIC     ATOMS    COLORGROUP SYSTEM
3 19 20 21
@<TRIPOS>COMMENT
> <Gold.Version>
2022.2.0

> <Gold.Id.Protein>
1qkm|1qkm_protein|mol2

> <Gold.Protein.RotatedTorsions>
[  496  491  490  487 ] final -140.16 input  -89.99 | X-H torsion

> <Gold.Protein.ActiveResidues>
 MET295  LEU298  THR299  LEU301  ALA302  GLU305  TRP335  MET336  LEU339  MET340 
 GLY342  LEU343  ARG346  PHE356  ILE373  ILE376  PHE377  LEU380  LYS471  GLY472 
 MET473  HIS475  LEU476  LEU477  ASN478  MET479  VAL484  VAL487 

> <Gold.Protein.RotatedAtoms>
   37.1749   34.0715   40.7236 H   0  0  0  0  0  0  0  0  0  0  0  0  # atno 496  bound_to 491 

> <Gold.Score>
     Score     S(PLP)   S(hbond)     S(cho)   S(metal)  DE(clash)   DE(tors)     intcor
     31.95     -28.95       1.00       0.00       0.00       0.00       0.00       0.00

> <Gold.PLP.Fitness>
31.9548

> <Gold.PLP.PLP>
-28.9548

> <Gold.PLP.part.hbond>
-1.0000

> <Gold.PLP.part.metal>
0.0000

> <Gold.PLP.part.buried>
-2.3673

> <Gold.PLP.part.nonpolar>
-26.6443

> <Gold.PLP.part.repulsive>
0.0000

> <Gold.PLP.ligand.clash>
0.0000

> <Gold.PLP.ligand.torsion>
0.0000

> <Gold.PLP.Chemscore.Hbond>
1.0000

> <Gold.PLP.Chemscore.CHOScore>
0.0000

> <Gold.PLP.Chemscore.Metal>
0.0000

> <Gold.Chemscore.Hbonds>
donor molecule, donor type, donor heavy atom, donor atom, acceptor molecule, acceptor atom, score
      L1  H     7    19       P1   470  1.00

> <Gold.PLP.Chemscore.Internal.Correction>
0.0000

