#       Name:                EN300-97589_i001
#       Creating user name   aseyller
#       Creation time:       Fri Apr 21 16:34:55 2023


#       File generated by GOLD software.
#

@<TRIPOS>MOLECULE
EN300-97589_i001|aminophenols|mol2|63|dock6
    21    21     1
SMALL
USER_CHARGES


@<TRIPOS>ATOM
      1 C1          26.2998  37.8995  37.6134 C.3            1 <1>                0.0000
      2 C2          26.9936  37.3017  38.8103 C.ar           1 <1>                0.0000
      3 C3          26.3092  37.1570  40.0029 C.ar           1 <1>                0.0000
      4 C4          26.9407  36.6094  41.1047 C.ar           1 <1>                0.0000
      5 C5          26.1908  36.4538  42.4025 C.3            1 <1>                0.0000
      6 C6          28.2620  36.2038  41.0155 C.ar           1 <1>                0.0000
      7 O7          28.8841  35.6648  42.0982 O.3            1 <1>                0.0000
      8 C8          28.9521  36.3488  39.8139 C.ar           1 <1>                0.0000
      9 N9          30.2874  35.9407  39.7181 N.pl3          1 <1>                0.0000
     10 C10         28.3106  36.8942  38.7114 C.ar           1 <1>                0.0000
     11 H11         26.4398  38.9805  37.6148 H              1 <1>                0.0000
     12 H12         26.7230  37.4795  36.7009 H              1 <1>                0.0000
     13 H13         25.2350  37.6710  37.6589 H              1 <1>                0.0000
     14 H14         25.2790  37.4727  40.0743 H              1 <1>                0.0000
     15 H15         25.7032  35.4792  42.4257 H              1 <1>                0.0000
     16 H16         26.8883  36.5310  43.2366 H              1 <1>                0.0000
     17 H17         25.4387  37.2384  42.4839 H              1 <1>                0.0000
     18 H18         28.8427  37.0079  37.7785 H              1 <1>                0.0000
     19 H19         29.8293  35.5056  41.9699 H              1 <1>                0.0000
     20 H20         30.7337  35.5563  40.4888 H              1 <1>                0.0000
     21 H21         30.7667  36.0423  38.8808 H              1 <1>                0.0000
@<TRIPOS>BOND
    1    1    2 1     
    2    1   11 1     
    3    1   12 1     
    4    1   13 1     
    5    2    3 ar    
    6    2   10 ar    
    7    3    4 ar    
    8    3   14 1     
    9    4    5 1     
   10    4    6 ar    
   11    5   15 1     
   12    5   16 1     
   13    5   17 1     
   14    6    7 1     
   15    6    8 ar    
   16    7   19 1     
   17    8    9 1     
   18    8   10 ar    
   19    9   20 1     
   20    9   21 1     
   21   10   18 1     
@<TRIPOS>SUBSTRUCTURE
      1 ****           1
@<TRIPOS>SET
DONOR_HYDROGENS      STATIC     ATOMS    <user>   **** ""
3 19 20 21
ATOM$RED        STATIC     ATOMS    COLORGROUP SYSTEM
3 19 20 21
@<TRIPOS>COMMENT
> <Gold.Version>
2022.2.0

> <Gold.Id.Protein>
1qkm|1qkm_protein|mol2

> <Gold.Protein.RotatedTorsions>
[  496  491  490  487 ] final  -23.27 input  -89.99 | X-H torsion

> <Gold.Protein.ActiveResidues>
 MET295  LEU298  THR299  LEU301  ALA302  GLU305  TRP335  MET336  LEU339  MET340 
 GLY342  LEU343  ARG346  PHE356  ILE373  ILE376  PHE377  LEU380  LYS471  GLY472 
 MET473  HIS475  LEU476  LEU477  ASN478  MET479  VAL484  VAL487 

> <Gold.Protein.RotatedAtoms>
   36.2903   34.5053   41.9937 H   0  0  0  0  0  0  0  0  0  0  0  0  # atno 496  bound_to 491 

> <Gold.Score>
     Score     S(PLP)   S(hbond)     S(cho)   S(metal)  DE(clash)   DE(tors)     intcor
     36.42     -30.42       2.00       0.00       0.00       0.00       0.00       0.00

> <Gold.PLP.Fitness>
36.4161

> <Gold.PLP.PLP>
-30.4161

> <Gold.PLP.part.hbond>
-2.6431

> <Gold.PLP.part.metal>
0.0000

> <Gold.PLP.part.buried>
1.7363

> <Gold.PLP.part.nonpolar>
-30.1154

> <Gold.PLP.part.repulsive>
0.0487

> <Gold.PLP.ligand.clash>
0.0000

> <Gold.PLP.ligand.torsion>
0.0000

> <Gold.PLP.Chemscore.Hbond>
2.0000

> <Gold.PLP.Chemscore.CHOScore>
0.0000

> <Gold.PLP.Chemscore.Metal>
0.0000

> <Gold.Chemscore.Hbonds>
donor molecule, donor type, donor heavy atom, donor atom, acceptor molecule, acceptor atom, score
      L1  H     7    19       P1   470  1.00
      L1  H     9    20       P1   470  1.00

> <Gold.PLP.Chemscore.Internal.Correction>
0.0000

