#       Name:                EN300-97589_i001
#       Creating user name   aseyller
#       Creation time:       Fri Apr 21 16:34:56 2023


#       File generated by GOLD software.
#

@<TRIPOS>MOLECULE
EN300-97589_i001|aminophenols|mol2|63|dock11
    21    21     1
SMALL
USER_CHARGES


@<TRIPOS>ATOM
      1 C1          33.2969  36.4058  35.0669 C.3            1 <1>                0.0000
      2 C2          32.4878  36.1389  36.3101 C.ar           1 <1>                0.0000
      3 C3          31.6490  37.1177  36.8100 C.ar           1 <1>                0.0000
      4 C4          30.9044  36.8788  37.9506 C.ar           1 <1>                0.0000
      5 C5          29.9916  37.9486  38.4920 C.3            1 <1>                0.0000
      6 C6          30.9973  35.6565  38.5953 C.ar           1 <1>                0.0000
      7 O7          30.2653  35.4201  39.7170 O.3            1 <1>                0.0000
      8 C8          31.8420  34.6696  38.0919 C.ar           1 <1>                0.0000
      9 N9          31.9398  33.4326  38.7392 N.pl3          1 <1>                0.0000
     10 C10         32.5819  34.9145  36.9443 C.ar           1 <1>                0.0000
     11 H11         34.2602  36.8332  35.3452 H              1 <1>                0.0000
     12 H12         33.4559  35.4709  34.5294 H              1 <1>                0.0000
     13 H13         32.7599  37.1060  34.4272 H              1 <1>                0.0000
     14 H14         31.5753  38.0714  36.3087 H              1 <1>                0.0000
     15 H15         29.0030  37.8431  38.0448 H              1 <1>                0.0000
     16 H16         29.9135  37.8461  39.5743 H              1 <1>                0.0000
     17 H17         30.3976  38.9303  38.2483 H              1 <1>                0.0000
     18 H18         33.2377  34.1516  36.5513 H              1 <1>                0.0000
     19 H19         30.7974  35.2921  40.5143 H              1 <1>                0.0000
     20 H20         31.4191  33.2614  39.5395 H              1 <1>                0.0000
     21 H21         32.5283  32.7463  38.3876 H              1 <1>                0.0000
@<TRIPOS>BOND
    1    1    2 1     
    2    1   11 1     
    3    1   12 1     
    4    1   13 1     
    5    2    3 ar    
    6    2   10 ar    
    7    3    4 ar    
    8    3   14 1     
    9    4    5 1     
   10    4    6 ar    
   11    5   15 1     
   12    5   16 1     
   13    5   17 1     
   14    6    7 1     
   15    6    8 ar    
   16    7   19 1     
   17    8    9 1     
   18    8   10 ar    
   19    9   20 1     
   20    9   21 1     
   21   10   18 1     
@<TRIPOS>SUBSTRUCTURE
      1 ****           1
@<TRIPOS>SET
DONOR_HYDROGENS      STATIC     ATOMS    <user>   **** ""
3 19 20 21
ATOM$RED        STATIC     ATOMS    COLORGROUP SYSTEM
3 19 20 21
@<TRIPOS>COMMENT
> <Gold.Version>
2022.2.0

> <Gold.Id.Protein>
1qkm|1qkm_protein|mol2

> <Gold.Protein.RotatedTorsions>
[  496  491  490  487 ] final   -3.63 input  -89.99 | X-H torsion

> <Gold.Protein.ActiveResidues>
 MET295  LEU298  THR299  LEU301  ALA302  GLU305  TRP335  MET336  LEU339  MET340 
 GLY342  LEU343  ARG346  PHE356  ILE373  ILE376  PHE377  LEU380  LYS471  GLY472 
 MET473  HIS475  LEU476  LEU477  ASN478  MET479  VAL484  VAL487 

> <Gold.Protein.RotatedAtoms>
   36.2588   34.2646   42.2047 H   0  0  0  0  0  0  0  0  0  0  0  0  # atno 496  bound_to 491 

> <Gold.Score>
     Score     S(PLP)   S(hbond)     S(cho)   S(metal)  DE(clash)   DE(tors)     intcor
     35.93     -32.93       1.00       0.00       0.00       0.00       0.00       0.00

> <Gold.PLP.Fitness>
35.9332

> <Gold.PLP.PLP>
-32.9332

> <Gold.PLP.part.hbond>
-1.0000

> <Gold.PLP.part.metal>
0.0000

> <Gold.PLP.part.buried>
-3.3492

> <Gold.PLP.part.nonpolar>
-29.3280

> <Gold.PLP.part.repulsive>
0.0504

> <Gold.PLP.ligand.clash>
0.0000

> <Gold.PLP.ligand.torsion>
0.0000

> <Gold.PLP.Chemscore.Hbond>
1.0000

> <Gold.PLP.Chemscore.CHOScore>
0.0000

> <Gold.PLP.Chemscore.Metal>
0.0000

> <Gold.Chemscore.Hbonds>
donor molecule, donor type, donor heavy atom, donor atom, acceptor molecule, acceptor atom, score
      L1  H     7    19       P1   470  1.00

> <Gold.PLP.Chemscore.Internal.Correction>
0.0000

