#       Name:                EN300-97589_i001
#       Creating user name   aseyller
#       Creation time:       Fri Apr 21 16:34:54 2023


#       File generated by GOLD software.
#

@<TRIPOS>MOLECULE
EN300-97589_i001|aminophenols|mol2|63|dock4
    21    21     1
SMALL
USER_CHARGES


@<TRIPOS>ATOM
      1 C1          29.5517  39.3593  37.1026 C.3            1 <1>                0.0000
      2 C2          30.0701  38.0781  37.7036 C.ar           1 <1>                0.0000
      3 C3          31.1605  37.4432  37.1384 C.ar           1 <1>                0.0000
      4 C4          31.6405  36.2672  37.6852 C.ar           1 <1>                0.0000
      5 C5          32.8292  35.5786  37.0658 C.3            1 <1>                0.0000
      6 C6          31.0290  35.7222  38.8021 C.ar           1 <1>                0.0000
      7 O7          31.5003  34.5657  39.3411 O.3            1 <1>                0.0000
      8 C8          29.9305  36.3616  39.3724 C.ar           1 <1>                0.0000
      9 N9          29.3087  35.8155  40.5011 N.pl3          1 <1>                0.0000
     10 C10         29.4578  37.5438  38.8216 C.ar           1 <1>                0.0000
     11 H11         28.7976  39.1285  36.3502 H              1 <1>                0.0000
     12 H12         29.1076  39.9741  37.8855 H              1 <1>                0.0000
     13 H13         30.3748  39.9017  36.6377 H              1 <1>                0.0000
     14 H14         31.6386  37.8666  36.2676 H              1 <1>                0.0000
     15 H15         33.7449  35.9519  37.5244 H              1 <1>                0.0000
     16 H16         32.7527  34.5037  37.2300 H              1 <1>                0.0000
     17 H17         32.8499  35.7822  35.9953 H              1 <1>                0.0000
     18 H18         28.6064  38.0421  39.2613 H              1 <1>                0.0000
     19 H19         31.6186  34.5985  40.3004 H              1 <1>                0.0000
     20 H20         29.6425  34.9907  40.8874 H              1 <1>                0.0000
     21 H21         28.5439  36.2618  40.8972 H              1 <1>                0.0000
@<TRIPOS>BOND
    1    1    2 1     
    2    1   11 1     
    3    1   12 1     
    4    1   13 1     
    5    2    3 ar    
    6    2   10 ar    
    7    3    4 ar    
    8    3   14 1     
    9    4    5 1     
   10    4    6 ar    
   11    5   15 1     
   12    5   16 1     
   13    5   17 1     
   14    6    7 1     
   15    6    8 ar    
   16    7   19 1     
   17    8    9 1     
   18    8   10 ar    
   19    9   20 1     
   20    9   21 1     
   21   10   18 1     
@<TRIPOS>SUBSTRUCTURE
      1 ****           1
@<TRIPOS>SET
DONOR_HYDROGENS      STATIC     ATOMS    <user>   **** ""
3 19 20 21
ATOM$RED        STATIC     ATOMS    COLORGROUP SYSTEM
3 19 20 21
@<TRIPOS>COMMENT
> <Gold.Version>
2022.2.0

> <Gold.Id.Protein>
1qkm|1qkm_protein|mol2

> <Gold.Protein.RotatedTorsions>
[  496  491  490  487 ] final  128.17 input  -89.99 | X-H torsion

> <Gold.Protein.ActiveResidues>
 MET295  LEU298  THR299  LEU301  ALA302  GLU305  TRP335  MET336  LEU339  MET340 
 GLY342  LEU343  ARG346  PHE356  ILE373  ILE376  PHE377  LEU380  LYS471  GLY472 
 MET473  HIS475  LEU476  LEU477  ASN478  MET479  VAL484  VAL487 

> <Gold.Protein.RotatedAtoms>
   37.1405   32.9640   41.5003 H   0  0  0  0  0  0  0  0  0  0  0  0  # atno 496  bound_to 491 

> <Gold.Score>
     Score     S(PLP)   S(hbond)     S(cho)   S(metal)  DE(clash)   DE(tors)     intcor
     35.12     -32.12       1.00       0.00       0.00       0.00       0.00       0.00

> <Gold.PLP.Fitness>
35.1239

> <Gold.PLP.PLP>
-32.1239

> <Gold.PLP.part.hbond>
-1.9472

> <Gold.PLP.part.metal>
0.0000

> <Gold.PLP.part.buried>
-1.8628

> <Gold.PLP.part.nonpolar>
-28.6401

> <Gold.PLP.part.repulsive>
0.0477

> <Gold.PLP.ligand.clash>
0.0000

> <Gold.PLP.ligand.torsion>
0.0000

> <Gold.PLP.Chemscore.Hbond>
1.0000

> <Gold.PLP.Chemscore.CHOScore>
0.0000

> <Gold.PLP.Chemscore.Metal>
0.0000

> <Gold.Chemscore.Hbonds>
donor molecule, donor type, donor heavy atom, donor atom, acceptor molecule, acceptor atom, score
      L1  H     7    19       P1   470  1.00

> <Gold.PLP.Chemscore.Internal.Correction>
0.0000

