#       Name:                EN300-97589_i001
#       Creating user name   aseyller
#       Creation time:       Fri Apr 21 16:34:56 2023


#       File generated by GOLD software.
#

@<TRIPOS>MOLECULE
EN300-97589_i001|aminophenols|mol2|63|dock12
    21    21     1
SMALL
USER_CHARGES


@<TRIPOS>ATOM
      1 C1          29.7266  38.0756  36.5878 C.3            1 <1>                0.0000
      2 C2          28.9964  37.5166  37.7818 C.ar           1 <1>                0.0000
      3 C3          27.6263  37.6706  37.8862 C.ar           1 <1>                0.0000
      4 C4          26.9509  37.1603  38.9797 C.ar           1 <1>                0.0000
      5 C5          25.4576  37.3306  39.0893 C.3            1 <1>                0.0000
      6 C6          27.6464  36.4924  39.9739 C.ar           1 <1>                0.0000
      7 O7          26.9832  35.9896  41.0497 O.3            1 <1>                0.0000
      8 C8          29.0268  36.3364  39.8691 C.ar           1 <1>                0.0000
      9 N9          29.7348  35.6624  40.8708 N.pl3          1 <1>                0.0000
     10 C10         29.6970  36.8465  38.7668 C.ar           1 <1>                0.0000
     11 H11         30.0405  39.0976  36.7997 H              1 <1>                0.0000
     12 H12         30.6031  37.4623  36.3783 H              1 <1>                0.0000
     13 H13         29.0645  38.0709  35.7220 H              1 <1>                0.0000
     14 H14         27.0823  38.1911  37.1120 H              1 <1>                0.0000
     15 H15         24.9597  36.4840  38.6164 H              1 <1>                0.0000
     16 H16         25.1735  37.3781  40.1406 H              1 <1>                0.0000
     17 H17         25.1594  38.2525  38.5902 H              1 <1>                0.0000
     18 H18         30.7671  36.7272  38.6825 H              1 <1>                0.0000
     19 H19         27.5599  35.7324  41.7822 H              1 <1>                0.0000
     20 H20         29.2645  35.3031  41.6393 H              1 <1>                0.0000
     21 H21         30.6960  35.5545  40.7965 H              1 <1>                0.0000
@<TRIPOS>BOND
    1    1    2 1     
    2    1   11 1     
    3    1   12 1     
    4    1   13 1     
    5    2    3 ar    
    6    2   10 ar    
    7    3    4 ar    
    8    3   14 1     
    9    4    5 1     
   10    4    6 ar    
   11    5   15 1     
   12    5   16 1     
   13    5   17 1     
   14    6    7 1     
   15    6    8 ar    
   16    7   19 1     
   17    8    9 1     
   18    8   10 ar    
   19    9   20 1     
   20    9   21 1     
   21   10   18 1     
@<TRIPOS>SUBSTRUCTURE
      1 ****           1
@<TRIPOS>SET
DONOR_HYDROGENS      STATIC     ATOMS    <user>   **** ""
3 19 20 21
ATOM$RED        STATIC     ATOMS    COLORGROUP SYSTEM
3 19 20 21
@<TRIPOS>COMMENT
> <Gold.Version>
2022.2.0

> <Gold.Id.Protein>
1qkm|1qkm_protein|mol2

> <Gold.Protein.RotatedTorsions>
[  496  491  490  487 ] final  -38.04 input  -89.99 | X-H torsion

> <Gold.Protein.ActiveResidues>
 MET295  LEU298  THR299  LEU301  ALA302  GLU305  TRP335  MET336  LEU339  MET340 
 GLY342  LEU343  ARG346  PHE356  ILE373  ILE376  PHE377  LEU380  LYS471  GLY472 
 MET473  HIS475  LEU476  LEU477  ASN478  MET479  VAL484  VAL487 

> <Gold.Protein.RotatedAtoms>
   36.3527   34.6364   41.7995 H   0  0  0  0  0  0  0  0  0  0  0  0  # atno 496  bound_to 491 

> <Gold.Score>
     Score     S(PLP)   S(hbond)     S(cho)   S(metal)  DE(clash)   DE(tors)     intcor
     34.59     -32.91       0.56       0.00       0.00       0.00       0.00       0.00

> <Gold.PLP.Fitness>
34.5895

> <Gold.PLP.PLP>
-32.9095

> <Gold.PLP.part.hbond>
-1.1731

> <Gold.PLP.part.metal>
0.0000

> <Gold.PLP.part.buried>
-2.9552

> <Gold.PLP.part.nonpolar>
-29.9045

> <Gold.PLP.part.repulsive>
0.1008

> <Gold.PLP.ligand.clash>
0.0000

> <Gold.PLP.ligand.torsion>
0.0000

> <Gold.PLP.Chemscore.Hbond>
0.5600

> <Gold.PLP.Chemscore.CHOScore>
0.0000

> <Gold.PLP.Chemscore.Metal>
0.0000

> <Gold.Chemscore.Hbonds>
donor molecule, donor type, donor heavy atom, donor atom, acceptor molecule, acceptor atom, score
      L1  H     9    21       P1   470  0.56

> <Gold.PLP.Chemscore.Internal.Correction>
0.0000

