#       Name:                EN300-97589_i001
#       Creating user name   aseyller
#       Creation time:       Fri Apr 21 16:34:55 2023


#       File generated by GOLD software.
#

@<TRIPOS>MOLECULE
EN300-97589_i001|aminophenols|mol2|63|dock8
    21    21     1
SMALL
USER_CHARGES


@<TRIPOS>ATOM
      1 C1          29.7318  39.4816  36.9893 C.3            1 <1>                0.0000
      2 C2          30.1756  38.1756  37.5964 C.ar           1 <1>                0.0000
      3 C3          29.4443  37.6091  38.6240 C.ar           1 <1>                0.0000
      4 C4          29.8469  36.4111  39.1853 C.ar           1 <1>                0.0000
      5 C5          29.0467  35.7975  40.3051 C.3            1 <1>                0.0000
      6 C6          30.9852  35.7750  38.7183 C.ar           1 <1>                0.0000
      7 O7          31.3820  34.5965  39.2693 O.3            1 <1>                0.0000
      8 C8          31.7223  36.3449  37.6826 C.ar           1 <1>                0.0000
      9 N9          32.8734  35.7065  37.2068 N.pl3          1 <1>                0.0000
     10 C10         31.3095  37.5443  37.1209 C.ar           1 <1>                0.0000
     11 H11         30.1928  40.3085  37.5294 H              1 <1>                0.0000
     12 H12         30.0348  39.5172  35.9428 H              1 <1>                0.0000
     13 H13         28.6470  39.5635  37.0564 H              1 <1>                0.0000
     14 H14         28.5566  38.1036  38.9894 H              1 <1>                0.0000
     15 H15         28.2861  35.1370  39.8886 H              1 <1>                0.0000
     16 H16         29.7095  35.2247  40.9538 H              1 <1>                0.0000
     17 H17         28.5657  36.5867  40.8828 H              1 <1>                0.0000
     18 H18         31.8787  37.9888  36.3178 H              1 <1>                0.0000
     19 H19         31.5634  34.6471  40.2178 H              1 <1>                0.0000
     20 H20         33.1589  34.8661  37.5981 H              1 <1>                0.0000
     21 H21         33.3857  36.1045  36.4856 H              1 <1>                0.0000
@<TRIPOS>BOND
    1    1    2 1     
    2    1   11 1     
    3    1   12 1     
    4    1   13 1     
    5    2    3 ar    
    6    2   10 ar    
    7    3    4 ar    
    8    3   14 1     
    9    4    5 1     
   10    4    6 ar    
   11    5   15 1     
   12    5   16 1     
   13    5   17 1     
   14    6    7 1     
   15    6    8 ar    
   16    7   19 1     
   17    8    9 1     
   18    8   10 ar    
   19    9   20 1     
   20    9   21 1     
   21   10   18 1     
@<TRIPOS>SUBSTRUCTURE
      1 ****           1
@<TRIPOS>SET
DONOR_HYDROGENS      STATIC     ATOMS    <user>   **** ""
3 19 20 21
ATOM$RED        STATIC     ATOMS    COLORGROUP SYSTEM
3 19 20 21
@<TRIPOS>COMMENT
> <Gold.Version>
2022.2.0

> <Gold.Id.Protein>
1qkm|1qkm_protein|mol2

> <Gold.Protein.RotatedTorsions>
[  496  491  490  487 ] final -129.59 input  -89.99 | X-H torsion

> <Gold.Protein.ActiveResidues>
 MET295  LEU298  THR299  LEU301  ALA302  GLU305  TRP335  MET336  LEU339  MET340 
 GLY342  LEU343  ARG346  PHE356  ILE373  ILE376  PHE377  LEU380  LYS471  GLY472 
 MET473  HIS475  LEU476  LEU477  ASN478  MET479  VAL484  VAL487 

> <Gold.Protein.RotatedAtoms>
   37.1017   34.2266   40.7515 H   0  0  0  0  0  0  0  0  0  0  0  0  # atno 496  bound_to 491 

> <Gold.Score>
     Score     S(PLP)   S(hbond)     S(cho)   S(metal)  DE(clash)   DE(tors)     intcor
     34.71     -31.71       1.00       0.00       0.00       0.00       0.00       0.00

> <Gold.PLP.Fitness>
34.7080

> <Gold.PLP.PLP>
-31.7080

> <Gold.PLP.part.hbond>
-1.0000

> <Gold.PLP.part.metal>
0.0000

> <Gold.PLP.part.buried>
-2.5122

> <Gold.PLP.part.nonpolar>
-28.8803

> <Gold.PLP.part.repulsive>
0.0152

> <Gold.PLP.ligand.clash>
0.0000

> <Gold.PLP.ligand.torsion>
0.0000

> <Gold.PLP.Chemscore.Hbond>
1.0000

> <Gold.PLP.Chemscore.CHOScore>
0.0000

> <Gold.PLP.Chemscore.Metal>
0.0000

> <Gold.Chemscore.Hbonds>
donor molecule, donor type, donor heavy atom, donor atom, acceptor molecule, acceptor atom, score
      L1  H     7    19       P1   470  1.00

> <Gold.PLP.Chemscore.Internal.Correction>
0.0000

