#       Name:                EN300-97589_i001
#       Creating user name   aseyller
#       Creation time:       Fri Apr 21 16:34:59 2023


#       File generated by GOLD software.
#

@<TRIPOS>MOLECULE
EN300-97589_i001|aminophenols|mol2|63|dock19
    21    21     1
SMALL
USER_CHARGES


@<TRIPOS>ATOM
      1 C1          29.8216  37.3766  37.4284 C.3            1 <1>                0.0000
      2 C2          28.8253  37.1053  38.5263 C.ar           1 <1>                0.0000
      3 C3          29.2608  36.6387  39.7527 C.ar           1 <1>                0.0000
      4 C4          28.3513  36.3877  40.7637 C.ar           1 <1>                0.0000
      5 C5          28.8307  35.8791  42.0988 C.3            1 <1>                0.0000
      6 C6          27.0001  36.6039  40.5496 C.ar           1 <1>                0.0000
      7 O7          26.1046  36.3577  41.5433 O.3            1 <1>                0.0000
      8 C8          26.5606  37.0745  39.3143 C.ar           1 <1>                0.0000
      9 N9          25.1963  37.2947  39.0923 N.pl3          1 <1>                0.0000
     10 C10         27.4792  37.3290  38.3064 C.ar           1 <1>                0.0000
     11 H11         29.9594  36.4747  36.8321 H              1 <1>                0.0000
     12 H12         29.4508  38.1800  36.7918 H              1 <1>                0.0000
     13 H13         30.7747  37.6712  37.8673 H              1 <1>                0.0000
     14 H14         30.3140  36.4696  39.9214 H              1 <1>                0.0000
     15 H15         29.0480  36.7238  42.7526 H              1 <1>                0.0000
     16 H16         28.0561  35.2596  42.5510 H              1 <1>                0.0000
     17 H17         29.7344  35.2862  41.9587 H              1 <1>                0.0000
     18 H18         27.1418  37.6940  37.3476 H              1 <1>                0.0000
     19 H19         26.4167  35.7271  42.2068 H              1 <1>                0.0000
     20 H20         24.5554  37.1197  39.7991 H              1 <1>                0.0000
     21 H21         24.8917  37.6224  38.2316 H              1 <1>                0.0000
@<TRIPOS>BOND
    1    1    2 1     
    2    1   11 1     
    3    1   12 1     
    4    1   13 1     
    5    2    3 ar    
    6    2   10 ar    
    7    3    4 ar    
    8    3   14 1     
    9    4    5 1     
   10    4    6 ar    
   11    5   15 1     
   12    5   16 1     
   13    5   17 1     
   14    6    7 1     
   15    6    8 ar    
   16    7   19 1     
   17    8    9 1     
   18    8   10 ar    
   19    9   20 1     
   20    9   21 1     
   21   10   18 1     
@<TRIPOS>SUBSTRUCTURE
      1 ****           1
@<TRIPOS>SET
DONOR_HYDROGENS      STATIC     ATOMS    <user>   **** ""
3 19 20 21
ATOM$RED        STATIC     ATOMS    COLORGROUP SYSTEM
3 19 20 21
@<TRIPOS>COMMENT
> <Gold.Version>
2022.2.0

> <Gold.Id.Protein>
1qkm|1qkm_protein|mol2

> <Gold.Protein.RotatedTorsions>
[  496  491  490  487 ] final  -16.24 input  -89.99 | X-H torsion

> <Gold.Protein.ActiveResidues>
 MET295  LEU298  THR299  LEU301  ALA302  GLU305  TRP335  MET336  LEU339  MET340 
 GLY342  LEU343  ARG346  PHE356  ILE373  ILE376  PHE377  LEU380  LYS471  GLY472 
 MET473  HIS475  LEU476  LEU477  ASN478  MET479  VAL484  VAL487 

> <Gold.Protein.RotatedAtoms>
   36.2720   34.4267   42.0766 H   0  0  0  0  0  0  0  0  0  0  0  0  # atno 496  bound_to 491 

> <Gold.Score>
     Score     S(PLP)   S(hbond)     S(cho)   S(metal)  DE(clash)   DE(tors)     intcor
     37.06     -33.73       1.11       0.00       0.00       0.00       0.00       0.00

> <Gold.PLP.Fitness>
37.0554

> <Gold.PLP.PLP>
-33.7294

> <Gold.PLP.part.hbond>
-1.8613

> <Gold.PLP.part.metal>
0.0000

> <Gold.PLP.part.buried>
-1.0299

> <Gold.PLP.part.nonpolar>
-31.8126

> <Gold.PLP.part.repulsive>
0.1054

> <Gold.PLP.ligand.clash>
0.0000

> <Gold.PLP.ligand.torsion>
0.0000

> <Gold.PLP.Chemscore.Hbond>
1.1087

> <Gold.PLP.Chemscore.CHOScore>
0.0000

> <Gold.PLP.Chemscore.Metal>
0.0000

> <Gold.Chemscore.Hbonds>
donor molecule, donor type, donor heavy atom, donor atom, acceptor molecule, acceptor atom, score
      L1  H     7    19       P1   582  1.00
      L1  H     9    20       P1  1131  0.11

> <Gold.PLP.Chemscore.Internal.Correction>
0.0000

