#       Name:                EN300-97589_i001
#       Creating user name   aseyller
#       Creation time:       Fri Apr 21 16:34:58 2023


#       File generated by GOLD software.
#

@<TRIPOS>MOLECULE
EN300-97589_i001|aminophenols|mol2|63|dock16
    21    21     1
SMALL
USER_CHARGES


@<TRIPOS>ATOM
      1 C1          27.6415  38.3514  36.7104 C.3            1 <1>                0.0000
      2 C2          27.9915  37.5870  37.9612 C.ar           1 <1>                0.0000
      3 C3          27.0507  37.4364  38.9631 C.ar           1 <1>                0.0000
      4 C4          27.3661  36.7364  40.1133 C.ar           1 <1>                0.0000
      5 C5          26.3376  36.5749  41.2027 C.3            1 <1>                0.0000
      6 C6          28.6271  36.1835  40.2641 C.ar           1 <1>                0.0000
      7 O7          28.9385  35.4945  41.3946 O.3            1 <1>                0.0000
      8 C8          29.5754  36.3344  39.2548 C.ar           1 <1>                0.0000
      9 N9          30.8512  35.7779  39.4017 N.pl3          1 <1>                0.0000
     10 C10         29.2502  37.0335  38.1015 C.ar           1 <1>                0.0000
     11 H11         27.8859  39.4047  36.8481 H              1 <1>                0.0000
     12 H12         28.2106  37.9532  35.8703 H              1 <1>                0.0000
     13 H13         26.5754  38.2491  36.5083 H              1 <1>                0.0000
     14 H14         26.0671  37.8668  38.8473 H              1 <1>                0.0000
     15 H15         25.7612  35.6667  41.0264 H              1 <1>                0.0000
     16 H16         26.8387  36.5055  42.1682 H              1 <1>                0.0000
     17 H17         25.6688  37.4355  41.2015 H              1 <1>                0.0000
     18 H18         29.9830  37.1523  37.3171 H              1 <1>                0.0000
     19 H19         29.8829  35.3136  41.4974 H              1 <1>                0.0000
     20 H20         31.0761  35.2863  40.2071 H              1 <1>                0.0000
     21 H21         31.5105  35.8837  38.6981 H              1 <1>                0.0000
@<TRIPOS>BOND
    1    1    2 1     
    2    1   11 1     
    3    1   12 1     
    4    1   13 1     
    5    2    3 ar    
    6    2   10 ar    
    7    3    4 ar    
    8    3   14 1     
    9    4    5 1     
   10    4    6 ar    
   11    5   15 1     
   12    5   16 1     
   13    5   17 1     
   14    6    7 1     
   15    6    8 ar    
   16    7   19 1     
   17    8    9 1     
   18    8   10 ar    
   19    9   20 1     
   20    9   21 1     
   21   10   18 1     
@<TRIPOS>SUBSTRUCTURE
      1 ****           1
@<TRIPOS>SET
DONOR_HYDROGENS      STATIC     ATOMS    <user>   **** ""
3 19 20 21
ATOM$RED        STATIC     ATOMS    COLORGROUP SYSTEM
3 19 20 21
@<TRIPOS>COMMENT
> <Gold.Version>
2022.2.0

> <Gold.Id.Protein>
1qkm|1qkm_protein|mol2

> <Gold.Protein.RotatedTorsions>
[  496  491  490  487 ] final   -0.86 input  -89.99 | X-H torsion

> <Gold.Protein.ActiveResidues>
 MET295  LEU298  THR299  LEU301  ALA302  GLU305  TRP335  MET336  LEU339  MET340 
 GLY342  LEU343  ARG346  PHE356  ILE373  ILE376  PHE377  LEU380  LYS471  GLY472 
 MET473  HIS475  LEU476  LEU477  ASN478  MET479  VAL484  VAL487 

> <Gold.Protein.RotatedAtoms>
   36.2593   34.2259   42.2288 H   0  0  0  0  0  0  0  0  0  0  0  0  # atno 496  bound_to 491 

> <Gold.Score>
     Score     S(PLP)   S(hbond)     S(cho)   S(metal)  DE(clash)   DE(tors)     intcor
     35.10     -29.10       2.00       0.00       0.00       0.00       0.00       0.00

> <Gold.PLP.Fitness>
35.1032

> <Gold.PLP.PLP>
-29.1032

> <Gold.PLP.part.hbond>
-2.0000

> <Gold.PLP.part.metal>
0.0000

> <Gold.PLP.part.buried>
-1.8062

> <Gold.PLP.part.nonpolar>
-25.5491

> <Gold.PLP.part.repulsive>
0.0557

> <Gold.PLP.ligand.clash>
0.0000

> <Gold.PLP.ligand.torsion>
0.0000

> <Gold.PLP.Chemscore.Hbond>
2.0000

> <Gold.PLP.Chemscore.CHOScore>
0.0000

> <Gold.PLP.Chemscore.Metal>
0.0000

> <Gold.Chemscore.Hbonds>
donor molecule, donor type, donor heavy atom, donor atom, acceptor molecule, acceptor atom, score
      L1  H     7    19       P1   470  1.00
      L1  H     9    20       P1   470  1.00

> <Gold.PLP.Chemscore.Internal.Correction>
0.0000

