#       Name:                EN300-97589_i001
#       Creating user name   aseyller
#       Creation time:       Fri Apr 21 16:34:54 2023


#       File generated by GOLD software.
#

@<TRIPOS>MOLECULE
EN300-97589_i001|aminophenols|mol2|63|dock3
    21    21     1
SMALL
USER_CHARGES


@<TRIPOS>ATOM
      1 C1          25.1990  37.5677  39.4996 C.3            1 <1>                0.0000
      2 C2          26.6435  37.1398  39.5404 C.ar           1 <1>                0.0000
      3 C3          27.4182  37.2179  38.3980 C.ar           1 <1>                0.0000
      4 C4          28.7442  36.8264  38.4292 C.ar           1 <1>                0.0000
      5 C5          29.5847  36.9132  37.1815 C.3            1 <1>                0.0000
      6 C6          29.2998  36.3547  39.6070 C.ar           1 <1>                0.0000
      7 O7          30.6039  35.9696  39.6391 O.3            1 <1>                0.0000
      8 C8          28.5199  36.2761  40.7587 C.ar           1 <1>                0.0000
      9 N9          29.0761  35.8003  41.9516 N.pl3          1 <1>                0.0000
     10 C10         27.1919  36.6756  40.7212 C.ar           1 <1>                0.0000
     11 H11         24.5745  36.7138  39.2370 H              1 <1>                0.0000
     12 H12         24.9044  37.9459  40.4786 H              1 <1>                0.0000
     13 H13         25.0734  38.3527  38.7540 H              1 <1>                0.0000
     14 H14         26.9867  37.5854  37.4788 H              1 <1>                0.0000
     15 H15         30.0641  37.8911  37.1337 H              1 <1>                0.0000
     16 H16         30.3478  36.1352  37.2026 H              1 <1>                0.0000
     17 H17         28.9504  36.7764  36.3058 H              1 <1>                0.0000
     18 H18         26.5846  36.6160  41.6122 H              1 <1>                0.0000
     19 H19         30.8751  35.5690  40.4765 H              1 <1>                0.0000
     20 H20         30.0058  35.5247  41.9773 H              1 <1>                0.0000
     21 H21         28.5319  35.7461  42.7528 H              1 <1>                0.0000
@<TRIPOS>BOND
    1    1    2 1     
    2    1   11 1     
    3    1   12 1     
    4    1   13 1     
    5    2    3 ar    
    6    2   10 ar    
    7    3    4 ar    
    8    3   14 1     
    9    4    5 1     
   10    4    6 ar    
   11    5   15 1     
   12    5   16 1     
   13    5   17 1     
   14    6    7 1     
   15    6    8 ar    
   16    7   19 1     
   17    8    9 1     
   18    8   10 ar    
   19    9   20 1     
   20    9   21 1     
   21   10   18 1     
@<TRIPOS>SUBSTRUCTURE
      1 ****           1
@<TRIPOS>SET
DONOR_HYDROGENS      STATIC     ATOMS    <user>   **** ""
3 19 20 21
ATOM$RED        STATIC     ATOMS    COLORGROUP SYSTEM
3 19 20 21
@<TRIPOS>COMMENT
> <Gold.Version>
2022.2.0

> <Gold.Id.Protein>
1qkm|1qkm_protein|mol2

> <Gold.Protein.RotatedTorsions>
[  496  491  490  487 ] final   16.97 input  -89.99 | X-H torsion

> <Gold.Protein.ActiveResidues>
 MET295  LEU298  THR299  LEU301  ALA302  GLU305  TRP335  MET336  LEU339  MET340 
 GLY342  LEU343  ARG346  PHE356  ILE373  ILE376  PHE377  LEU380  LYS471  GLY472 
 MET473  HIS475  LEU476  LEU477  ASN478  MET479  VAL484  VAL487 

> <Gold.Protein.RotatedAtoms>
   36.2919   33.9591   42.3442 H   0  0  0  0  0  0  0  0  0  0  0  0  # atno 496  bound_to 491 

> <Gold.Score>
     Score     S(PLP)   S(hbond)     S(cho)   S(metal)  DE(clash)   DE(tors)     intcor
     37.38     -31.38       2.00       0.00       0.00       0.00       0.00       0.00

> <Gold.PLP.Fitness>
37.3840

> <Gold.PLP.PLP>
-31.3840

> <Gold.PLP.part.hbond>
-2.0000

> <Gold.PLP.part.metal>
0.0000

> <Gold.PLP.part.buried>
-1.1042

> <Gold.PLP.part.nonpolar>
-27.6112

> <Gold.PLP.part.repulsive>
0.0957

> <Gold.PLP.ligand.clash>
0.0000

> <Gold.PLP.ligand.torsion>
0.0000

> <Gold.PLP.Chemscore.Hbond>
2.0000

> <Gold.PLP.Chemscore.CHOScore>
0.0000

> <Gold.PLP.Chemscore.Metal>
0.0000

> <Gold.Chemscore.Hbonds>
donor molecule, donor type, donor heavy atom, donor atom, acceptor molecule, acceptor atom, score
      L1  H     7    19       P1   470  1.00
      L1  H     9    20       P1   470  1.00

> <Gold.PLP.Chemscore.Internal.Correction>
0.0000

