#       Name:                EN300-97589_i001
#       Creating user name   aseyller
#       Creation time:       Fri Apr 21 16:34:57 2023


#       File generated by GOLD software.
#

@<TRIPOS>MOLECULE
EN300-97589_i001|aminophenols|mol2|63|dock15
    21    21     1
SMALL
USER_CHARGES


@<TRIPOS>ATOM
      1 C1          31.7183  34.7770  38.2618 C.3            1 <1>                0.0000
      2 C2          31.9856  35.7482  37.1409 C.ar           1 <1>                0.0000
      3 C3          31.0063  36.6462  36.7585 C.ar           1 <1>                0.0000
      4 C4          31.2456  37.5395  35.7304 C.ar           1 <1>                0.0000
      5 C5          30.1752  38.5164  35.3169 C.3            1 <1>                0.0000
      6 C6          32.4689  37.5369  35.0808 C.ar           1 <1>                0.0000
      7 O7          32.7057  38.4152  34.0697 O.3            1 <1>                0.0000
      8 C8          33.4563  36.6327  35.4659 C.ar           1 <1>                0.0000
      9 N9          34.6943  36.6255  34.8131 N.pl3          1 <1>                0.0000
     10 C10         33.2110  35.7430  36.5016 C.ar           1 <1>                0.0000
     11 H11         31.2926  33.8601  37.8542 H              1 <1>                0.0000
     12 H12         32.6527  34.5474  38.7740 H              1 <1>                0.0000
     13 H13         31.0165  35.2209  38.9678 H              1 <1>                0.0000
     14 H14         30.0519  36.6497  37.2638 H              1 <1>                0.0000
     15 H15         30.2788  39.4348  35.8947 H              1 <1>                0.0000
     16 H16         30.2790  38.7413  34.2554 H              1 <1>                0.0000
     17 H17         29.1938  38.0797  35.5016 H              1 <1>                0.0000
     18 H18         33.9743  35.0407  36.8026 H              1 <1>                0.0000
     19 H19         33.5819  38.3279  33.6699 H              1 <1>                0.0000
     20 H20         34.8658  37.2506  34.0914 H              1 <1>                0.0000
     21 H21         35.3810  35.9954  35.0822 H              1 <1>                0.0000
@<TRIPOS>BOND
    1    1    2 1     
    2    1   11 1     
    3    1   12 1     
    4    1   13 1     
    5    2    3 ar    
    6    2   10 ar    
    7    3    4 ar    
    8    3   14 1     
    9    4    5 1     
   10    4    6 ar    
   11    5   15 1     
   12    5   16 1     
   13    5   17 1     
   14    6    7 1     
   15    6    8 ar    
   16    7   19 1     
   17    8    9 1     
   18    8   10 ar    
   19    9   20 1     
   20    9   21 1     
   21   10   18 1     
@<TRIPOS>SUBSTRUCTURE
      1 ****           1
@<TRIPOS>SET
DONOR_HYDROGENS      STATIC     ATOMS    <user>   **** ""
3 19 20 21
ATOM$RED        STATIC     ATOMS    COLORGROUP SYSTEM
3 19 20 21
@<TRIPOS>COMMENT
> <Gold.Version>
2022.2.0

> <Gold.Id.Protein>
1qkm|1qkm_protein|mol2

> <Gold.Protein.RotatedTorsions>
[  496  491  490  487 ] final   75.01 input  -89.99 | X-H torsion

> <Gold.Protein.ActiveResidues>
 MET295  LEU298  THR299  LEU301  ALA302  GLU305  TRP335  MET336  LEU339  MET340 
 GLY342  LEU343  ARG346  PHE356  ILE373  ILE376  PHE377  LEU380  LYS471  GLY472 
 MET473  HIS475  LEU476  LEU477  ASN478  MET479  VAL484  VAL487 

> <Gold.Protein.RotatedAtoms>
   36.6824   33.1469   42.1851 H   0  0  0  0  0  0  0  0  0  0  0  0  # atno 496  bound_to 491 

> <Gold.Score>
     Score     S(PLP)   S(hbond)     S(cho)   S(metal)  DE(clash)   DE(tors)     intcor
     34.64     -29.24       1.80       0.00       0.00       0.00       0.00       0.00

> <Gold.PLP.Fitness>
34.6400

> <Gold.PLP.PLP>
-29.2366

> <Gold.PLP.part.hbond>
-2.0000

> <Gold.PLP.part.metal>
0.0000

> <Gold.PLP.part.buried>
0.2802

> <Gold.PLP.part.nonpolar>
-27.2307

> <Gold.PLP.part.repulsive>
0.0875

> <Gold.PLP.ligand.clash>
0.0000

> <Gold.PLP.ligand.torsion>
0.0000

> <Gold.PLP.Chemscore.Hbond>
1.8011

> <Gold.PLP.Chemscore.CHOScore>
0.0000

> <Gold.PLP.Chemscore.Metal>
0.0000

> <Gold.Chemscore.Hbonds>
donor molecule, donor type, donor heavy atom, donor atom, acceptor molecule, acceptor atom, score
      L1  H     7    19       P1  3229  0.80
      L1  H     9    20       P1  3229  1.00

> <Gold.PLP.Chemscore.Internal.Correction>
0.0000

