#       Name:                EN300-97589_i001
#       Creating user name   aseyller
#       Creation time:       Fri Apr 21 16:34:55 2023


#       File generated by GOLD software.
#

@<TRIPOS>MOLECULE
EN300-97589_i001|aminophenols|mol2|63|dock7
    21    21     1
SMALL
USER_CHARGES


@<TRIPOS>ATOM
      1 C1          33.1710  36.6867  34.9360 C.3            1 <1>                0.0000
      2 C2          32.3968  36.3590  36.1867 C.ar           1 <1>                0.0000
      3 C3          32.5117  35.1063  36.7604 C.ar           1 <1>                0.0000
      4 C4          31.8035  34.7997  37.9080 C.ar           1 <1>                0.0000
      5 C5          31.9318  33.4330  38.5297 C.3            1 <1>                0.0000
      6 C6          30.9764  35.7485  38.4861 C.ar           1 <1>                0.0000
      7 O7          30.2796  35.4483  39.6149 O.3            1 <1>                0.0000
      8 C8          30.8604  37.0111  37.9088 C.ar           1 <1>                0.0000
      9 N9          30.0262  37.9737  38.4887 N.pl3          1 <1>                0.0000
     10 C10         31.5780  37.3133  36.7607 C.ar           1 <1>                0.0000
     11 H11         32.5730  36.4312  34.0612 H              1 <1>                0.0000
     12 H12         33.4014  37.7520  34.9200 H              1 <1>                0.0000
     13 H13         34.0983  36.1141  34.9221 H              1 <1>                0.0000
     14 H14         33.1561  34.3653  36.3111 H              1 <1>                0.0000
     15 H15         32.7471  33.4381  39.2532 H              1 <1>                0.0000
     16 H16         31.0006  33.1741  39.0336 H              1 <1>                0.0000
     17 H17         32.1407  32.6983  37.7522 H              1 <1>                0.0000
     18 H18         31.4903  38.2911  36.3106 H              1 <1>                0.0000
     19 H19         30.7603  35.6304  40.4340 H              1 <1>                0.0000
     20 H20         29.5278  37.7623  39.2935 H              1 <1>                0.0000
     21 H21         29.9464  38.8525  38.0857 H              1 <1>                0.0000
@<TRIPOS>BOND
    1    1    2 1     
    2    1   11 1     
    3    1   12 1     
    4    1   13 1     
    5    2    3 ar    
    6    2   10 ar    
    7    3    4 ar    
    8    3   14 1     
    9    4    5 1     
   10    4    6 ar    
   11    5   15 1     
   12    5   16 1     
   13    5   17 1     
   14    6    7 1     
   15    6    8 ar    
   16    7   19 1     
   17    8    9 1     
   18    8   10 ar    
   19    9   20 1     
   20    9   21 1     
   21   10   18 1     
@<TRIPOS>SUBSTRUCTURE
      1 ****           1
@<TRIPOS>SET
DONOR_HYDROGENS      STATIC     ATOMS    <user>   **** ""
3 19 20 21
ATOM$RED        STATIC     ATOMS    COLORGROUP SYSTEM
3 19 20 21
@<TRIPOS>COMMENT
> <Gold.Version>
2022.2.0

> <Gold.Id.Protein>
1qkm|1qkm_protein|mol2

> <Gold.Protein.RotatedTorsions>
[  496  491  490  487 ] final  137.43 input  -89.99 | X-H torsion

> <Gold.Protein.ActiveResidues>
 MET295  LEU298  THR299  LEU301  ALA302  GLU305  TRP335  MET336  LEU339  MET340 
 GLY342  LEU343  ARG346  PHE356  ILE373  ILE376  PHE377  LEU380  LYS471  GLY472 
 MET473  HIS475  LEU476  LEU477  ASN478  MET479  VAL484  VAL487 

> <Gold.Protein.RotatedAtoms>
   37.1997   33.0089   41.3674 H   0  0  0  0  0  0  0  0  0  0  0  0  # atno 496  bound_to 491 

> <Gold.Score>
     Score     S(PLP)   S(hbond)     S(cho)   S(metal)  DE(clash)   DE(tors)     intcor
     37.84     -34.84       1.00       0.00       0.00       0.00       0.00       0.00

> <Gold.PLP.Fitness>
37.8420

> <Gold.PLP.PLP>
-34.8420

> <Gold.PLP.part.hbond>
-1.0000

> <Gold.PLP.part.metal>
0.0000

> <Gold.PLP.part.buried>
-3.0340

> <Gold.PLP.part.nonpolar>
-31.4878

> <Gold.PLP.part.repulsive>
0.0000

> <Gold.PLP.ligand.clash>
0.0000

> <Gold.PLP.ligand.torsion>
0.0000

> <Gold.PLP.Chemscore.Hbond>
1.0000

> <Gold.PLP.Chemscore.CHOScore>
0.0000

> <Gold.PLP.Chemscore.Metal>
0.0000

> <Gold.Chemscore.Hbonds>
donor molecule, donor type, donor heavy atom, donor atom, acceptor molecule, acceptor atom, score
      L1  H     7    19       P1   470  1.00

> <Gold.PLP.Chemscore.Internal.Correction>
0.0000

