#       Name:                EN300-97589_i001
#       Creating user name   aseyller
#       Creation time:       Fri Apr 21 16:34:56 2023


#       File generated by GOLD software.
#

@<TRIPOS>MOLECULE
EN300-97589_i001|aminophenols|mol2|63|dock10
    21    21     1
SMALL
USER_CHARGES


@<TRIPOS>ATOM
      1 C1          26.0641  37.8963  37.6401 C.3            1 <1>                0.0000
      2 C2          26.8472  37.2983  38.7804 C.ar           1 <1>                0.0000
      3 C3          28.1539  36.8926  38.5815 C.ar           1 <1>                0.0000
      4 C4          28.8774  36.3428  39.6239 C.ar           1 <1>                0.0000
      5 C5          30.3013  35.9020  39.4023 C.3            1 <1>                0.0000
      6 C6          28.2938  36.1975  40.8715 C.ar           1 <1>                0.0000
      7 O7          29.0043  35.6573  41.8978 O.3            1 <1>                0.0000
      8 C8          26.9773  36.6065  41.0729 C.ar           1 <1>                0.0000
      9 N9          26.3824  36.4621  42.3315 N.pl3          1 <1>                0.0000
     10 C10         26.2594  37.1620  40.0239 C.ar           1 <1>                0.0000
     11 H11         25.5443  37.1040  37.1015 H              1 <1>                0.0000
     12 H12         25.3364  38.6068  38.0324 H              1 <1>                0.0000
     13 H13         26.7449  38.4106  36.9619 H              1 <1>                0.0000
     14 H14         28.6106  37.0051  37.6094 H              1 <1>                0.0000
     15 H15         30.9756  36.7321  39.6132 H              1 <1>                0.0000
     16 H16         30.5314  35.0692  40.0670 H              1 <1>                0.0000
     17 H17         30.4269  35.5859  38.3668 H              1 <1>                0.0000
     18 H18         25.2386  37.4801  40.1766 H              1 <1>                0.0000
     19 H19         29.9630  35.7331  41.7952 H              1 <1>                0.0000
     20 H20         26.8868  36.0769  43.0651 H              1 <1>                0.0000
     21 H21         25.4657  36.7473  42.4703 H              1 <1>                0.0000
@<TRIPOS>BOND
    1    1    2 1     
    2    1   11 1     
    3    1   12 1     
    4    1   13 1     
    5    2    3 ar    
    6    2   10 ar    
    7    3    4 ar    
    8    3   14 1     
    9    4    5 1     
   10    4    6 ar    
   11    5   15 1     
   12    5   16 1     
   13    5   17 1     
   14    6    7 1     
   15    6    8 ar    
   16    7   19 1     
   17    8    9 1     
   18    8   10 ar    
   19    9   20 1     
   20    9   21 1     
   21   10   18 1     
@<TRIPOS>SUBSTRUCTURE
      1 ****           1
@<TRIPOS>SET
DONOR_HYDROGENS      STATIC     ATOMS    <user>   **** ""
3 19 20 21
ATOM$RED        STATIC     ATOMS    COLORGROUP SYSTEM
3 19 20 21
@<TRIPOS>COMMENT
> <Gold.Version>
2022.2.0

> <Gold.Id.Protein>
1qkm|1qkm_protein|mol2

> <Gold.Protein.RotatedTorsions>
[  496  491  490  487 ] final  -13.54 input  -89.99 | X-H torsion

> <Gold.Protein.ActiveResidues>
 MET295  LEU298  THR299  LEU301  ALA302  GLU305  TRP335  MET336  LEU339  MET340 
 GLY342  LEU343  ARG346  PHE356  ILE373  ILE376  PHE377  LEU380  LYS471  GLY472 
 MET473  HIS475  LEU476  LEU477  ASN478  MET479  VAL484  VAL487 

> <Gold.Protein.RotatedAtoms>
   36.2670   34.3941   42.1064 H   0  0  0  0  0  0  0  0  0  0  0  0  # atno 496  bound_to 491 

> <Gold.Score>
     Score     S(PLP)   S(hbond)     S(cho)   S(metal)  DE(clash)   DE(tors)     intcor
     37.74     -33.92       1.27       0.00       0.00       0.00       0.00       0.00

> <Gold.PLP.Fitness>
37.7366

> <Gold.PLP.PLP>
-33.9206

> <Gold.PLP.part.hbond>
-2.1229

> <Gold.PLP.part.metal>
0.0000

> <Gold.PLP.part.buried>
-3.4647

> <Gold.PLP.part.nonpolar>
-29.0038

> <Gold.PLP.part.repulsive>
0.0780

> <Gold.PLP.ligand.clash>
0.0000

> <Gold.PLP.ligand.torsion>
0.0000

> <Gold.PLP.Chemscore.Hbond>
1.2720

> <Gold.PLP.Chemscore.CHOScore>
0.0000

> <Gold.PLP.Chemscore.Metal>
0.0000

> <Gold.Chemscore.Hbonds>
donor molecule, donor type, donor heavy atom, donor atom, acceptor molecule, acceptor atom, score
      L1  H     7    19       P1   470  1.00
      L1  H     9    20       P1   582  0.27

> <Gold.PLP.Chemscore.Internal.Correction>
0.0000

