#       Name:                EN300-97589_i001
#       Creating user name   aseyller
#       Creation time:       Fri Apr 21 16:34:53 2023


#       File generated by GOLD software.
#

@<TRIPOS>MOLECULE
EN300-97589_i001|aminophenols|mol2|63|dock2
    21    21     1
SMALL
USER_CHARGES


@<TRIPOS>ATOM
      1 C1          26.3915  38.5039  37.4232 C.3            1 <1>                0.0000
      2 C2          26.7047  37.5615  38.5569 C.ar           1 <1>                0.0000
      3 C3          27.9598  36.9894  38.6511 C.ar           1 <1>                0.0000
      4 C4          28.2530  36.1236  39.6889 C.ar           1 <1>                0.0000
      5 C5          29.6223  35.5023  39.7874 C.3            1 <1>                0.0000
      6 C6          27.2884  35.8277  40.6378 C.ar           1 <1>                0.0000
      7 O7          27.5755  34.9767  41.6592 O.3            1 <1>                0.0000
      8 C8          26.0236  36.4042  40.5438 C.ar           1 <1>                0.0000
      9 N9          25.0450  36.1088  41.4998 N.pl3          1 <1>                0.0000
     10 C10         25.7384  37.2758  39.5029 C.ar           1 <1>                0.0000
     11 H11         25.9974  37.9382  36.5790 H              1 <1>                0.0000
     12 H12         25.6495  39.2322  37.7508 H              1 <1>                0.0000
     13 H13         27.3009  39.0227  37.1202 H              1 <1>                0.0000
     14 H14         28.7131  37.2189  37.9122 H              1 <1>                0.0000
     15 H15         30.2709  36.1452  40.3826 H              1 <1>                0.0000
     16 H16         29.5443  34.5247  40.2631 H              1 <1>                0.0000
     17 H17         30.0422  35.3878  38.7882 H              1 <1>                0.0000
     18 H18         24.7589  37.7245  39.4272 H              1 <1>                0.0000
     19 H19         26.8084  34.7323  42.1949 H              1 <1>                0.0000
     20 H20         25.2470  35.5020  42.2291 H              1 <1>                0.0000
     21 H21         24.1648  36.5110  41.4332 H              1 <1>                0.0000
@<TRIPOS>BOND
    1    1    2 1     
    2    1   11 1     
    3    1   12 1     
    4    1   13 1     
    5    2    3 ar    
    6    2   10 ar    
    7    3    4 ar    
    8    3   14 1     
    9    4    5 1     
   10    4    6 ar    
   11    5   15 1     
   12    5   16 1     
   13    5   17 1     
   14    6    7 1     
   15    6    8 ar    
   16    7   19 1     
   17    8    9 1     
   18    8   10 ar    
   19    9   20 1     
   20    9   21 1     
   21   10   18 1     
@<TRIPOS>SUBSTRUCTURE
      1 ****           1
@<TRIPOS>SET
DONOR_HYDROGENS      STATIC     ATOMS    <user>   **** ""
3 19 20 21
ATOM$RED        STATIC     ATOMS    COLORGROUP SYSTEM
3 19 20 21
@<TRIPOS>COMMENT
> <Gold.Version>
2022.2.0

> <Gold.Id.Protein>
1qkm|1qkm_protein|mol2

> <Gold.Protein.RotatedTorsions>
[  496  491  490  487 ] final -175.25 input  -89.99 | X-H torsion

> <Gold.Protein.ActiveResidues>
 MET295  LEU298  THR299  LEU301  ALA302  GLU305  TRP335  MET336  LEU339  MET340 
 GLY342  LEU343  ARG346  PHE356  ILE373  ILE376  PHE377  LEU380  LYS471  GLY472 
 MET473  HIS475  LEU476  LEU477  ASN478  MET479  VAL484  VAL487 

> <Gold.Protein.RotatedAtoms>
   37.3134   33.5304   40.8307 H   0  0  0  0  0  0  0  0  0  0  0  0  # atno 496  bound_to 491 

> <Gold.Score>
     Score     S(PLP)   S(hbond)     S(cho)   S(metal)  DE(clash)   DE(tors)     intcor
     41.11     -35.02       2.03       0.00       0.00       0.00       0.00       0.00

> <Gold.PLP.Fitness>
41.1130

> <Gold.PLP.PLP>
-35.0200

> <Gold.PLP.part.hbond>
-2.9555

> <Gold.PLP.part.metal>
0.0000

> <Gold.PLP.part.buried>
-3.5165

> <Gold.PLP.part.nonpolar>
-30.0712

> <Gold.PLP.part.repulsive>
0.1521

> <Gold.PLP.ligand.clash>
0.0000

> <Gold.PLP.ligand.torsion>
0.0000

> <Gold.PLP.Chemscore.Hbond>
2.0310

> <Gold.PLP.Chemscore.CHOScore>
0.0000

> <Gold.PLP.Chemscore.Metal>
0.0000

> <Gold.Chemscore.Hbonds>
donor molecule, donor type, donor heavy atom, donor atom, acceptor molecule, acceptor atom, score
      L1  H     7    19       P1   582  0.99
      L1  H     9    20       P1   582  1.00
      L1  H     9    21       P1  1131  0.04

> <Gold.PLP.Chemscore.Internal.Correction>
0.0000

