#       Name:                EN300-97589_i001
#       Creating user name   aseyller
#       Creation time:       Fri Apr 21 16:34:57 2023


#       File generated by GOLD software.
#

@<TRIPOS>MOLECULE
EN300-97589_i001|aminophenols|mol2|63|dock13
    21    21     1
SMALL
USER_CHARGES


@<TRIPOS>ATOM
      1 C1          30.4521  35.4572  39.1655 C.3            1 <1>                0.0000
      2 C2          29.0404  35.9632  39.3149 C.ar           1 <1>                0.0000
      3 C3          28.5409  36.8883  38.4170 C.ar           1 <1>                0.0000
      4 C4          27.2464  37.3566  38.5492 C.ar           1 <1>                0.0000
      5 C5          26.7063  38.3649  37.5682 C.3            1 <1>                0.0000
      6 C6          26.4463  36.8989  39.5830 C.ar           1 <1>                0.0000
      7 O7          25.1728  37.3584  39.7140 O.3            1 <1>                0.0000
      8 C8          26.9487  35.9664  40.4879 C.ar           1 <1>                0.0000
      9 N9          26.1446  35.5005  41.5344 N.pl3          1 <1>                0.0000
     10 C10         28.2464  35.4972  40.3459 C.ar           1 <1>                0.0000
     11 H11         31.1295  36.0989  39.7287 H              1 <1>                0.0000
     12 H12         30.5150  34.4382  39.5475 H              1 <1>                0.0000
     13 H13         30.7325  35.4683  38.1123 H              1 <1>                0.0000
     14 H14         29.1633  37.2463  37.6104 H              1 <1>                0.0000
     15 H15         26.2385  37.8442  36.7326 H              1 <1>                0.0000
     16 H16         25.9671  38.9942  38.0639 H              1 <1>                0.0000
     17 H17         27.5225  38.9854  37.1985 H              1 <1>                0.0000
     18 H18         28.6390  34.7743  41.0457 H              1 <1>                0.0000
     19 H19         24.5245  36.6691  39.9131 H              1 <1>                0.0000
     20 H20         25.2362  35.8267  41.6305 H              1 <1>                0.0000
     21 H21         26.4958  34.8512  42.1638 H              1 <1>                0.0000
@<TRIPOS>BOND
    1    1    2 1     
    2    1   11 1     
    3    1   12 1     
    4    1   13 1     
    5    2    3 ar    
    6    2   10 ar    
    7    3    4 ar    
    8    3   14 1     
    9    4    5 1     
   10    4    6 ar    
   11    5   15 1     
   12    5   16 1     
   13    5   17 1     
   14    6    7 1     
   15    6    8 ar    
   16    7   19 1     
   17    8    9 1     
   18    8   10 ar    
   19    9   20 1     
   20    9   21 1     
   21   10   18 1     
@<TRIPOS>SUBSTRUCTURE
      1 ****           1
@<TRIPOS>SET
DONOR_HYDROGENS      STATIC     ATOMS    <user>   **** ""
3 19 20 21
ATOM$RED        STATIC     ATOMS    COLORGROUP SYSTEM
3 19 20 21
@<TRIPOS>COMMENT
> <Gold.Version>
2022.2.0

> <Gold.Id.Protein>
1qkm|1qkm_protein|mol2

> <Gold.Protein.RotatedTorsions>
[  496  491  490  487 ] final   30.53 input  -89.99 | X-H torsion

> <Gold.Protein.ActiveResidues>
 MET295  LEU298  THR299  LEU301  ALA302  GLU305  TRP335  MET336  LEU339  MET340 
 GLY342  LEU343  ARG346  PHE356  ILE373  ILE376  PHE377  LEU380  LYS471  GLY472 
 MET473  HIS475  LEU476  LEU477  ASN478  MET479  VAL484  VAL487 

> <Gold.Protein.RotatedAtoms>
   36.3490   33.7472   42.3812 H   0  0  0  0  0  0  0  0  0  0  0  0  # atno 496  bound_to 491 

> <Gold.Score>
     Score     S(PLP)   S(hbond)     S(cho)   S(metal)  DE(clash)   DE(tors)     intcor
     36.71     -32.82       1.30       0.00       0.00       0.00       0.00       0.00

> <Gold.PLP.Fitness>
36.7060

> <Gold.PLP.PLP>
-32.8158

> <Gold.PLP.part.hbond>
-1.6834

> <Gold.PLP.part.metal>
0.0000

> <Gold.PLP.part.buried>
-1.6995

> <Gold.PLP.part.nonpolar>
-29.7656

> <Gold.PLP.part.repulsive>
0.0425

> <Gold.PLP.ligand.clash>
0.0000

> <Gold.PLP.ligand.torsion>
0.0000

> <Gold.PLP.Chemscore.Hbond>
1.2968

> <Gold.PLP.Chemscore.CHOScore>
0.0000

> <Gold.PLP.Chemscore.Metal>
0.0000

> <Gold.Chemscore.Hbonds>
donor molecule, donor type, donor heavy atom, donor atom, acceptor molecule, acceptor atom, score
      L1  H     7    19       P1  1131  0.67
      L1  H     9    21       P1   582  0.62

> <Gold.PLP.Chemscore.Internal.Correction>
0.0000

