#       Name:                EN300-97589_i001
#       Creating user name   aseyller
#       Creation time:       Fri Apr 21 16:34:54 2023


#       File generated by GOLD software.
#

@<TRIPOS>MOLECULE
EN300-97589_i001|aminophenols|mol2|63|dock5
    21    21     1
SMALL
USER_CHARGES


@<TRIPOS>ATOM
      1 C1          24.7325  36.9670  40.9556 C.3            1 <1>                0.0000
      2 C2          26.1761  36.8331  40.5439 C.ar           1 <1>                0.0000
      3 C3          26.5512  37.1151  39.2434 C.ar           1 <1>                0.0000
      4 C4          27.8743  36.9937  38.8598 C.ar           1 <1>                0.0000
      5 C5          28.2785  37.3021  37.4412 C.3            1 <1>                0.0000
      6 C6          28.8279  36.5890  39.7791 C.ar           1 <1>                0.0000
      7 O7          30.1296  36.4696  39.4031 O.3            1 <1>                0.0000
      8 C8          28.4508  36.3051  41.0898 C.ar           1 <1>                0.0000
      9 N9          29.4102  35.8958  42.0230 N.pl3          1 <1>                0.0000
     10 C10         27.1226  36.4342  41.4688 C.ar           1 <1>                0.0000
     11 H11         24.2195  36.0189  40.7946 H              1 <1>                0.0000
     12 H12         24.6791  37.2345  42.0109 H              1 <1>                0.0000
     13 H13         24.2551  37.7443  40.3590 H              1 <1>                0.0000
     14 H14         25.8090  37.4308  38.5253 H              1 <1>                0.0000
     15 H15         28.5415  38.3568  37.3595 H              1 <1>                0.0000
     16 H16         29.1385  36.6910  37.1674 H              1 <1>                0.0000
     17 H17         27.4479  37.0818  36.7706 H              1 <1>                0.0000
     18 H18         26.8269  36.2149  42.4841 H              1 <1>                0.0000
     19 H19         30.4740  37.2385  38.9284 H              1 <1>                0.0000
     20 H20         30.3392  35.8094  41.7575 H              1 <1>                0.0000
     21 H21         29.1462  35.6984  42.9353 H              1 <1>                0.0000
@<TRIPOS>BOND
    1    1    2 1     
    2    1   11 1     
    3    1   12 1     
    4    1   13 1     
    5    2    3 ar    
    6    2   10 ar    
    7    3    4 ar    
    8    3   14 1     
    9    4    5 1     
   10    4    6 ar    
   11    5   15 1     
   12    5   16 1     
   13    5   17 1     
   14    6    7 1     
   15    6    8 ar    
   16    7   19 1     
   17    8    9 1     
   18    8   10 ar    
   19    9   20 1     
   20    9   21 1     
   21   10   18 1     
@<TRIPOS>SUBSTRUCTURE
      1 ****           1
@<TRIPOS>SET
DONOR_HYDROGENS      STATIC     ATOMS    <user>   **** ""
3 19 20 21
ATOM$RED        STATIC     ATOMS    COLORGROUP SYSTEM
3 19 20 21
@<TRIPOS>COMMENT
> <Gold.Version>
2022.2.0

> <Gold.Id.Protein>
1qkm|1qkm_protein|mol2

> <Gold.Protein.RotatedTorsions>
[  496  491  490  487 ] final   29.40 input  -89.99 | X-H torsion

> <Gold.Protein.ActiveResidues>
 MET295  LEU298  THR299  LEU301  ALA302  GLU305  TRP335  MET336  LEU339  MET340 
 GLY342  LEU343  ARG346  PHE356  ILE373  ILE376  PHE377  LEU380  LYS471  GLY472 
 MET473  HIS475  LEU476  LEU477  ASN478  MET479  VAL484  VAL487 

> <Gold.Protein.RotatedAtoms>
   36.3433   33.7648   42.3798 H   0  0  0  0  0  0  0  0  0  0  0  0  # atno 496  bound_to 491 

> <Gold.Score>
     Score     S(PLP)   S(hbond)     S(cho)   S(metal)  DE(clash)   DE(tors)     intcor
     34.12     -31.33       0.93       0.00       0.00       0.00       0.00       0.00

> <Gold.PLP.Fitness>
34.1169

> <Gold.PLP.PLP>
-31.3329

> <Gold.PLP.part.hbond>
-0.9604

> <Gold.PLP.part.metal>
0.0000

> <Gold.PLP.part.buried>
1.9193

> <Gold.PLP.part.nonpolar>
-33.0031

> <Gold.PLP.part.repulsive>
0.1242

> <Gold.PLP.ligand.clash>
0.0000

> <Gold.PLP.ligand.torsion>
0.0000

> <Gold.PLP.Chemscore.Hbond>
0.9280

> <Gold.PLP.Chemscore.CHOScore>
0.0000

> <Gold.PLP.Chemscore.Metal>
0.0000

> <Gold.Chemscore.Hbonds>
donor molecule, donor type, donor heavy atom, donor atom, acceptor molecule, acceptor atom, score
      L1  H     9    20       P1   470  0.93

> <Gold.PLP.Chemscore.Internal.Correction>
0.0000

