#       Name:                EN300-97589_i001
#       Creating user name   aseyller
#       Creation time:       Fri Apr 21 16:34:53 2023


#       File generated by GOLD software.
#

@<TRIPOS>MOLECULE
EN300-97589_i001
    21    21     1
SMALL
USER_CHARGES


@<TRIPOS>ATOM
      1 C1           2.9741  -0.0991   0.0240 C.3            1 <1>                0.0000
      2 C2           1.4672  -0.1205   0.0334 C.ar           1 <1>                0.0000
      3 C3           0.7608   1.0680   0.0372 C.ar           1 <1>                0.0000
      4 C4          -0.6220   1.0547   0.0462 C.ar           1 <1>                0.0000
      5 C5          -1.3877   2.3526   0.0504 C.3            1 <1>                0.0000
      6 C6          -1.3033  -0.1512   0.0511 C.ar           1 <1>                0.0000
      7 O7          -2.6633  -0.1657   0.0596 O.3            1 <1>                0.0000
      8 C8          -0.5922  -1.3492   0.0468 C.ar           1 <1>                0.0000
      9 N9          -1.2754  -2.5707   0.0517 N.pl3          1 <1>                0.0000
     10 C10          0.7948  -1.3281   0.0325 C.ar           1 <1>                0.0000
     11 H11          3.3437  -0.0935   1.0494 H              1 <1>                0.0000
     12 H12          3.3467  -0.9842  -0.4917 H              1 <1>                0.0000
     13 H13          3.3216   0.7956  -0.4924 H              1 <1>                0.0000
     14 H14          1.2903   2.0092   0.0334 H              1 <1>                0.0000
     15 H15         -1.5791   2.6648  -0.9763 H              1 <1>                0.0000
     16 H16         -2.3355   2.2136   0.5705 H              1 <1>                0.0000
     17 H17         -0.8025   3.1181   0.5598 H              1 <1>                0.0000
     18 H18          1.3491  -2.2550   0.0291 H              1 <1>                0.0000
     19 H19         -3.0621  -0.1703  -0.8214 H              1 <1>                0.0000
     20 H20         -2.2453  -2.5840   0.0581 H              1 <1>                0.0000
     21 H21         -0.7790  -3.4041   0.0487 H              1 <1>                0.0000
@<TRIPOS>BOND
    1    1    2 1     
    2    1   11 1     
    3    1   12 1     
    4    1   13 1     
    5    2    3 ar    
    6    2   10 ar    
    7    3    4 ar    
    8    3   14 1     
    9    4    5 1     
   10    4    6 ar    
   11    5   15 1     
   12    5   16 1     
   13    5   17 1     
   14    6    7 1     
   15    6    8 ar    
   16    7   19 1     
   17    8    9 1     
   18    8   10 ar    
   19    9   20 1     
   20    9   21 1     
   21   10   18 1     
@<TRIPOS>SUBSTRUCTURE
      1 ****           1
@<TRIPOS>SET
DONOR_HYDROGENS      STATIC     ATOMS    <user>   **** ""
3 19 20 21
ATOM$RED        STATIC     ATOMS    COLORGROUP SYSTEM
3 19 20 21
