#       Name:                EN300-97589_i001
#       Creating user name   aseyller
#       Creation time:       Fri Apr 21 16:34:55 2023


#       File generated by GOLD software.
#

@<TRIPOS>MOLECULE
EN300-97589_i001|aminophenols|mol2|63|dock9
    21    21     1
SMALL
USER_CHARGES


@<TRIPOS>ATOM
      1 C1          30.3921  36.5414  38.6279 C.3            1 <1>                0.0000
      2 C2          29.0765  36.4262  39.3540 C.ar           1 <1>                0.0000
      3 C3          27.9475  37.0332  38.8358 C.ar           1 <1>                0.0000
      4 C4          26.7376  36.9313  39.4978 C.ar           1 <1>                0.0000
      5 C5          25.5098  37.5946  38.9292 C.3            1 <1>                0.0000
      6 C6          26.6541  36.2196  40.6831 C.ar           1 <1>                0.0000
      7 O7          25.4647  36.1183  41.3350 O.3            1 <1>                0.0000
      8 C8          27.7912  35.6074  41.2057 C.ar           1 <1>                0.0000
      9 N9          27.7127  34.8869  42.4030 N.pl3          1 <1>                0.0000
     10 C10         29.0003  35.7095  40.5334 C.ar           1 <1>                0.0000
     11 H11         30.9260  37.4235  38.9813 H              1 <1>                0.0000
     12 H12         30.9922  35.6521  38.8204 H              1 <1>                0.0000
     13 H13         30.2095  36.6318  37.5572 H              1 <1>                0.0000
     14 H14         28.0107  37.5885  37.9117 H              1 <1>                0.0000
     15 H15         24.9967  36.8999  38.2641 H              1 <1>                0.0000
     16 H16         24.8417  37.8800  39.7418 H              1 <1>                0.0000
     17 H17         25.8027  38.4833  38.3704 H              1 <1>                0.0000
     18 H18         29.8837  35.2360  40.9357 H              1 <1>                0.0000
     19 H19         25.5369  35.7652  42.2324 H              1 <1>                0.0000
     20 H20         26.8658  34.8134  42.8702 H              1 <1>                0.0000
     21 H21         28.5052  34.4611  42.7657 H              1 <1>                0.0000
@<TRIPOS>BOND
    1    1    2 1     
    2    1   11 1     
    3    1   12 1     
    4    1   13 1     
    5    2    3 ar    
    6    2   10 ar    
    7    3    4 ar    
    8    3   14 1     
    9    4    5 1     
   10    4    6 ar    
   11    5   15 1     
   12    5   16 1     
   13    5   17 1     
   14    6    7 1     
   15    6    8 ar    
   16    7   19 1     
   17    8    9 1     
   18    8   10 ar    
   19    9   20 1     
   20    9   21 1     
   21   10   18 1     
@<TRIPOS>SUBSTRUCTURE
      1 ****           1
@<TRIPOS>SET
DONOR_HYDROGENS      STATIC     ATOMS    <user>   **** ""
3 19 20 21
ATOM$RED        STATIC     ATOMS    COLORGROUP SYSTEM
3 19 20 21
@<TRIPOS>COMMENT
> <Gold.Version>
2022.2.0

> <Gold.Id.Protein>
1qkm|1qkm_protein|mol2

> <Gold.Protein.RotatedTorsions>
[  496  491  490  487 ] final  101.54 input  -89.99 | X-H torsion

> <Gold.Protein.ActiveResidues>
 MET295  LEU298  THR299  LEU301  ALA302  GLU305  TRP335  MET336  LEU339  MET340 
 GLY342  LEU343  ARG346  PHE356  ILE373  ILE376  PHE377  LEU380  LYS471  GLY472 
 MET473  HIS475  LEU476  LEU477  ASN478  MET479  VAL484  VAL487 

> <Gold.Protein.RotatedAtoms>
   36.9254   32.9632   41.8778 H   0  0  0  0  0  0  0  0  0  0  0  0  # atno 496  bound_to 491 

> <Gold.Score>
     Score     S(PLP)   S(hbond)     S(cho)   S(metal)  DE(clash)   DE(tors)     intcor
     37.67     -33.93       1.24       0.00       0.00       0.00       0.00       0.00

> <Gold.PLP.Fitness>
37.6657

> <Gold.PLP.PLP>
-33.9345

> <Gold.PLP.part.hbond>
-0.3869

> <Gold.PLP.part.metal>
0.0000

> <Gold.PLP.part.buried>
-2.5316

> <Gold.PLP.part.nonpolar>
-32.0218

> <Gold.PLP.part.repulsive>
0.0969

> <Gold.PLP.ligand.clash>
0.0000

> <Gold.PLP.ligand.torsion>
0.0000

> <Gold.PLP.Chemscore.Hbond>
1.2438

> <Gold.PLP.Chemscore.CHOScore>
0.0000

> <Gold.PLP.Chemscore.Metal>
0.0000

> <Gold.Chemscore.Hbonds>
donor molecule, donor type, donor heavy atom, donor atom, acceptor molecule, acceptor atom, score
      L1  H     7    19       P1   582  1.00
      L1  H     9    20       P1   582  0.24

> <Gold.PLP.Chemscore.Internal.Correction>
0.0000

