#       Name:                EN300-97589_i001
#       Creating user name   aseyller
#       Creation time:       Fri Apr 21 16:34:59 2023


#       File generated by GOLD software.
#

@<TRIPOS>MOLECULE
EN300-97589_i001|aminophenols|mol2|63|dock20
    21    21     1
SMALL
USER_CHARGES


@<TRIPOS>ATOM
      1 C1          33.5437  36.5890  34.9095 C.3            1 <1>                0.0000
      2 C2          32.5820  36.6328  36.0690 C.ar           1 <1>                0.0000
      3 C3          31.6517  37.6519  36.1550 C.ar           1 <1>                0.0000
      4 C4          30.7669  37.6976  37.2168 C.ar           1 <1>                0.0000
      5 C5          29.7547  38.8103  37.3064 C.3            1 <1>                0.0000
      6 C6          30.8108  36.7208  38.1978 C.ar           1 <1>                0.0000
      7 O7          29.9409  36.7644  39.2425 O.3            1 <1>                0.0000
      8 C8          31.7477  35.6933  38.1116 C.ar           1 <1>                0.0000
      9 N9          31.7965  34.7036  39.1000 N.pl3          1 <1>                0.0000
     10 C10         32.6286  35.6510  37.0408 C.ar           1 <1>                0.0000
     11 H11         34.4458  37.1451  35.1645 H              1 <1>                0.0000
     12 H12         33.8046  35.5530  34.6929 H              1 <1>                0.0000
     13 H13         33.0764  37.0369  34.0326 H              1 <1>                0.0000
     14 H14         31.6160  38.4144  35.3911 H              1 <1>                0.0000
     15 H15         28.8402  38.5117  36.7939 H              1 <1>                0.0000
     16 H16         29.5334  39.0168  38.3536 H              1 <1>                0.0000
     17 H17         30.1581  39.7073  36.8366 H              1 <1>                0.0000
     18 H18         33.3561  34.8559  36.9710 H              1 <1>                0.0000
     19 H19         30.3353  37.0723  40.0701 H              1 <1>                0.0000
     20 H20         31.1776  34.7324  39.8463 H              1 <1>                0.0000
     21 H21         32.4494  33.9888  39.0387 H              1 <1>                0.0000
@<TRIPOS>BOND
    1    1    2 1     
    2    1   11 1     
    3    1   12 1     
    4    1   13 1     
    5    2    3 ar    
    6    2   10 ar    
    7    3    4 ar    
    8    3   14 1     
    9    4    5 1     
   10    4    6 ar    
   11    5   15 1     
   12    5   16 1     
   13    5   17 1     
   14    6    7 1     
   15    6    8 ar    
   16    7   19 1     
   17    8    9 1     
   18    8   10 ar    
   19    9   20 1     
   20    9   21 1     
   21   10   18 1     
@<TRIPOS>SUBSTRUCTURE
      1 ****           1
@<TRIPOS>SET
DONOR_HYDROGENS      STATIC     ATOMS    <user>   **** ""
3 19 20 21
ATOM$RED        STATIC     ATOMS    COLORGROUP SYSTEM
3 19 20 21
@<TRIPOS>COMMENT
> <Gold.Version>
2022.2.0

> <Gold.Id.Protein>
1qkm|1qkm_protein|mol2

> <Gold.Protein.RotatedTorsions>
[  496  491  490  487 ] final   12.79 input  -89.99 | X-H torsion

> <Gold.Protein.ActiveResidues>
 MET295  LEU298  THR299  LEU301  ALA302  GLU305  TRP335  MET336  LEU339  MET340 
 GLY342  LEU343  ARG346  PHE356  ILE373  ILE376  PHE377  LEU380  LYS471  GLY472 
 MET473  HIS475  LEU476  LEU477  ASN478  MET479  VAL484  VAL487 

> <Gold.Protein.RotatedAtoms>
   36.2798   34.0238   42.3236 H   0  0  0  0  0  0  0  0  0  0  0  0  # atno 496  bound_to 491 

> <Gold.Score>
     Score     S(PLP)   S(hbond)     S(cho)   S(metal)  DE(clash)   DE(tors)     intcor
     32.59     -32.27       0.11       0.00       0.00       0.00       0.00       0.00

> <Gold.PLP.Fitness>
32.5877

> <Gold.PLP.PLP>
-32.2711

> <Gold.PLP.part.hbond>
-1.0000

> <Gold.PLP.part.metal>
0.0000

> <Gold.PLP.part.buried>
-2.3016

> <Gold.PLP.part.nonpolar>
-29.0773

> <Gold.PLP.part.repulsive>
0.0834

> <Gold.PLP.ligand.clash>
0.0000

> <Gold.PLP.ligand.torsion>
0.0000

> <Gold.PLP.Chemscore.Hbond>
0.1056

> <Gold.PLP.Chemscore.CHOScore>
0.0000

> <Gold.PLP.Chemscore.Metal>
0.0000

> <Gold.Chemscore.Hbonds>
donor molecule, donor type, donor heavy atom, donor atom, acceptor molecule, acceptor atom, score
      L1  H     9    20       P1   470  0.11

> <Gold.PLP.Chemscore.Internal.Correction>
0.0000

