#       Name:                EN300-97589_i001
#       Creating user name   aseyller
#       Creation time:       Fri Apr 21 16:34:58 2023


#       File generated by GOLD software.
#

@<TRIPOS>MOLECULE
EN300-97589_i001|aminophenols|mol2|63|dock17
    21    21     1
SMALL
USER_CHARGES


@<TRIPOS>ATOM
      1 C1          28.7526  37.0385  37.3119 C.3            1 <1>                0.0000
      2 C2          28.2107  36.8976  38.7111 C.ar           1 <1>                0.0000
      3 C3          26.8711  37.1342  38.9587 C.ar           1 <1>                0.0000
      4 C4          26.3681  37.0069  40.2406 C.ar           1 <1>                0.0000
      5 C5          24.9075  37.2658  40.5057 C.3            1 <1>                0.0000
      6 C6          27.2065  36.6412  41.2807 C.ar           1 <1>                0.0000
      7 O7          26.7130  36.5153  42.5419 O.3            1 <1>                0.0000
      8 C8          28.5562  36.4022  41.0319 C.ar           1 <1>                0.0000
      9 N9          29.4080  36.0324  42.0791 N.pl3          1 <1>                0.0000
     10 C10         29.0527  36.5268  39.7426 C.ar           1 <1>                0.0000
     11 H11         29.0915  38.0625  37.1551 H              1 <1>                0.0000
     12 H12         29.5899  36.3539  37.1761 H              1 <1>                0.0000
     13 H13         27.9687  36.8010  36.5930 H              1 <1>                0.0000
     14 H14         26.2160  37.4194  38.1490 H              1 <1>                0.0000
     15 H15         24.3472  36.3380  40.3897 H              1 <1>                0.0000
     16 H16         24.7835  37.6404  41.5218 H              1 <1>                0.0000
     17 H17         24.5352  38.0059  39.7975 H              1 <1>                0.0000
     18 H18         30.0985  36.3422  39.5463 H              1 <1>                0.0000
     19 H19         26.3249  35.6492  42.7277 H              1 <1>                0.0000
     20 H20         29.0588  35.9422  42.9796 H              1 <1>                0.0000
     21 H21         30.3476  35.8663  41.9045 H              1 <1>                0.0000
@<TRIPOS>BOND
    1    1    2 1     
    2    1   11 1     
    3    1   12 1     
    4    1   13 1     
    5    2    3 ar    
    6    2   10 ar    
    7    3    4 ar    
    8    3   14 1     
    9    4    5 1     
   10    4    6 ar    
   11    5   15 1     
   12    5   16 1     
   13    5   17 1     
   14    6    7 1     
   15    6    8 ar    
   16    7   19 1     
   17    8    9 1     
   18    8   10 ar    
   19    9   20 1     
   20    9   21 1     
   21   10   18 1     
@<TRIPOS>SUBSTRUCTURE
      1 ****           1
@<TRIPOS>SET
DONOR_HYDROGENS      STATIC     ATOMS    <user>   **** ""
3 19 20 21
ATOM$RED        STATIC     ATOMS    COLORGROUP SYSTEM
3 19 20 21
@<TRIPOS>COMMENT
> <Gold.Version>
2022.2.0

> <Gold.Id.Protein>
1qkm|1qkm_protein|mol2

> <Gold.Protein.RotatedTorsions>
[  496  491  490  487 ] final   28.48 input  -89.99 | X-H torsion

> <Gold.Protein.ActiveResidues>
 MET295  LEU298  THR299  LEU301  ALA302  GLU305  TRP335  MET336  LEU339  MET340 
 GLY342  LEU343  ARG346  PHE356  ILE373  ILE376  PHE377  LEU380  LYS471  GLY472 
 MET473  HIS475  LEU476  LEU477  ASN478  MET479  VAL484  VAL487 

> <Gold.Protein.RotatedAtoms>
   36.3387   33.7792   42.3785 H   0  0  0  0  0  0  0  0  0  0  0  0  # atno 496  bound_to 491 

> <Gold.Score>
     Score     S(PLP)   S(hbond)     S(cho)   S(metal)  DE(clash)   DE(tors)     intcor
     37.01     -31.22       1.93       0.00       0.00       0.00       0.00       0.00

> <Gold.PLP.Fitness>
37.0076

> <Gold.PLP.PLP>
-31.2236

> <Gold.PLP.part.hbond>
-1.5862

> <Gold.PLP.part.metal>
0.0000

> <Gold.PLP.part.buried>
0.0175

> <Gold.PLP.part.nonpolar>
-29.9425

> <Gold.PLP.part.repulsive>
0.1164

> <Gold.PLP.ligand.clash>
0.0000

> <Gold.PLP.ligand.torsion>
0.0000

> <Gold.PLP.Chemscore.Hbond>
1.9280

> <Gold.PLP.Chemscore.CHOScore>
0.0000

> <Gold.PLP.Chemscore.Metal>
0.0000

> <Gold.Chemscore.Hbonds>
donor molecule, donor type, donor heavy atom, donor atom, acceptor molecule, acceptor atom, score
      L1  H     7    19       P1   582  0.93
      L1  H     9    21       P1   470  1.00

> <Gold.PLP.Chemscore.Internal.Correction>
0.0000

