#       Name:                EN300-97589_i001
#       Creating user name   aseyller
#       Creation time:       Fri Apr 21 16:34:53 2023


#       File generated by GOLD software.
#

@<TRIPOS>MOLECULE
EN300-97589_i001|aminophenols|mol2|63|dock1
    21    21     1
SMALL
USER_CHARGES


@<TRIPOS>ATOM
      1 C1          30.1944  36.8546  37.4204 C.3            1 <1>                0.0000
      2 C2          29.1969  36.7416  38.5445 C.ar           1 <1>                0.0000
      3 C3          27.8685  37.0532  38.3214 C.ar           1 <1>                0.0000
      4 C4          26.9486  36.9518  39.3490 C.ar           1 <1>                0.0000
      5 C5          25.5018  37.2926  39.1011 C.3            1 <1>                0.0000
      6 C6          27.3568  36.5370  40.6059 C.ar           1 <1>                0.0000
      7 O7          26.4531  36.4366  41.6173 O.3            1 <1>                0.0000
      8 C8          28.6951  36.2225  40.8314 C.ar           1 <1>                0.0000
      9 N9          29.1132  35.8028  42.0994 N.pl3          1 <1>                0.0000
     10 C10         29.6112  36.3215  39.7944 C.ar           1 <1>                0.0000
     11 H11         30.6198  37.8581  37.4117 H              1 <1>                0.0000
     12 H12         30.9900  36.1239  37.5661 H              1 <1>                0.0000
     13 H13         29.6949  36.6634  36.4708 H              1 <1>                0.0000
     14 H14         27.5484  37.3768  37.3420 H              1 <1>                0.0000
     15 H15         24.9679  36.3982  38.7796 H              1 <1>                0.0000
     16 H16         25.0551  37.6715  40.0204 H              1 <1>                0.0000
     17 H17         25.4358  38.0541  38.3242 H              1 <1>                0.0000
     18 H18         30.6495  36.0784  39.9658 H              1 <1>                0.0000
     19 H19         26.5514  35.6387  42.1548 H              1 <1>                0.0000
     20 H20         28.4709  35.7306  42.8227 H              1 <1>                0.0000
     21 H21         30.0454  35.5841  42.2550 H              1 <1>                0.0000
@<TRIPOS>BOND
    1    1    2 1     
    2    1   11 1     
    3    1   12 1     
    4    1   13 1     
    5    2    3 ar    
    6    2   10 ar    
    7    3    4 ar    
    8    3   14 1     
    9    4    5 1     
   10    4    6 ar    
   11    5   15 1     
   12    5   16 1     
   13    5   17 1     
   14    6    7 1     
   15    6    8 ar    
   16    7   19 1     
   17    8    9 1     
   18    8   10 ar    
   19    9   20 1     
   20    9   21 1     
   21   10   18 1     
@<TRIPOS>SUBSTRUCTURE
      1 ****           1
@<TRIPOS>SET
DONOR_HYDROGENS      STATIC     ATOMS    <user>   **** ""
3 19 20 21
ATOM$RED        STATIC     ATOMS    COLORGROUP SYSTEM
3 19 20 21
@<TRIPOS>COMMENT
> <Gold.Version>
2022.2.0

> <Gold.Id.Protein>
1qkm|1qkm_protein|mol2

> <Gold.Protein.RotatedTorsions>
[  496  491  490  487 ] final  -52.85 input  -89.99 | X-H torsion

> <Gold.Protein.ActiveResidues>
 MET295  LEU298  THR299  LEU301  ALA302  GLU305  TRP335  MET336  LEU339  MET340 
 GLY342  LEU343  ARG346  PHE356  ILE373  ILE376  PHE377  LEU380  LYS471  GLY472 
 MET473  HIS475  LEU476  LEU477  ASN478  MET479  VAL484  VAL487 

> <Gold.Protein.RotatedAtoms>
   36.4442   34.7148   41.5884 H   0  0  0  0  0  0  0  0  0  0  0  0  # atno 496  bound_to 491 

> <Gold.Score>
     Score     S(PLP)   S(hbond)     S(cho)   S(metal)  DE(clash)   DE(tors)     intcor
     41.82     -35.82       2.00       0.00       0.00       0.00       0.00       0.00

> <Gold.PLP.Fitness>
41.8195

> <Gold.PLP.PLP>
-35.8195

> <Gold.PLP.part.hbond>
-2.0000

> <Gold.PLP.part.metal>
0.0000

> <Gold.PLP.part.buried>
-3.7353

> <Gold.PLP.part.nonpolar>
-31.1474

> <Gold.PLP.part.repulsive>
0.1069

> <Gold.PLP.ligand.clash>
0.0000

> <Gold.PLP.ligand.torsion>
0.0000

> <Gold.PLP.Chemscore.Hbond>
2.0000

> <Gold.PLP.Chemscore.CHOScore>
0.0000

> <Gold.PLP.Chemscore.Metal>
0.0000

> <Gold.Chemscore.Hbonds>
donor molecule, donor type, donor heavy atom, donor atom, acceptor molecule, acceptor atom, score
      L1  H     7    19       P1   582  1.00
      L1  H     9    21       P1   470  1.00

> <Gold.PLP.Chemscore.Internal.Correction>
0.0000

