#       Name:                EN300-17023_i001
#       Creating user name   aseyller
#       Creation time:       Fri Apr 21 16:43:36 2023


#       File generated by GOLD software.
#

@<TRIPOS>MOLECULE
EN300-17023_i001|benzaldehydes|mol2|73|dock12
    21    22     1
SMALL
USER_CHARGES


@<TRIPOS>ATOM
      1 Cl1         25.1163  36.7018  41.6296 Cl             1 <1>                0.0000
      2 C2          26.5432  36.7473  40.6418 C.ar           1 <1>                0.0000
      3 C3          26.4496  37.1236  39.3120 C.ar           1 <1>                0.0000
      4 C4          27.5792  37.1616  38.5222 C.ar           1 <1>                0.0000
      5 C5          28.8198  36.8202  39.0659 C.ar           1 <1>                0.0000
      6 C6          28.9074  36.4421  40.4078 C.ar           1 <1>                0.0000
      7 C7          27.7710  36.4126  41.1883 C.ar           1 <1>                0.0000
      8 C8          30.0331  36.8583  38.2259 C.2            1 <1>                0.0000
      9 C9          30.2368  37.6873  37.1446 C.2            1 <1>                0.0000
     10 C10         31.5062  37.3980  36.6419 C.2            1 <1>                0.0000
     11 C11         32.0335  36.3978  37.4388 C.2            1 <1>                0.0000
     12 C12         33.3029  35.8019  37.2864 C.2            1 <1>                0.0000
     13 O13         33.8472  35.8012  36.2004 O.2            1 <1>                0.0000
     14 O14         31.1256  36.0944  38.3913 O.3            1 <1>                0.0000
     15 H15         25.4898  37.3873  38.8929 H              1 <1>                0.0000
     16 H16         27.5048  37.4545  37.4853 H              1 <1>                0.0000
     17 H17         29.8638  36.1769  40.8341 H              1 <1>                0.0000
     18 H18         27.8374  36.1208  42.2260 H              1 <1>                0.0000
     19 H19         29.5451  38.4215  36.7587 H              1 <1>                0.0000
     20 H20         31.9845  37.8648  35.7935 H              1 <1>                0.0000
     21 H21         33.7910  35.3462  38.1353 H              1 <1>                0.0000
@<TRIPOS>BOND
    1    1    2 1     
    2    2    3 ar    
    3    2    7 ar    
    4    3    4 ar    
    5    3   15 1     
    6    4    5 ar    
    7    4   16 1     
    8    5    6 ar    
    9    5    8 1     
   10    6    7 ar    
   11    6   17 1     
   12    7   18 1     
   13    8    9 2     
   14    8   14 1     
   15    9   10 1     
   16    9   19 1     
   17   10   11 2     
   18   10   20 1     
   19   11   12 1     
   20   11   14 1     
   21   12   13 2     
   22   12   21 1     
@<TRIPOS>SUBSTRUCTURE
      1 ****           1
@<TRIPOS>COMMENT
> <Gold.Version>
2022.2.0

> <Gold.Id.Protein>
1qkm|1qkm_protein|mol2

> <Gold.Protein.RotatedTorsions>
[  496  491  490  487 ] final -106.77 input  -89.99 | X-H torsion

> <Gold.Protein.ActiveResidues>
 MET295  LEU298  THR299  LEU301  ALA302  GLU305  TRP335  MET336  LEU339  MET340 
 GLY342  LEU343  ARG346  PHE356  ILE373  ILE376  PHE377  LEU380  LYS471  GLY472 
 MET473  HIS475  LEU476  LEU477  ASN478  MET479  VAL484  VAL487 

> <Gold.Protein.RotatedAtoms>
   36.9113   34.5101   40.9019 H   0  0  0  0  0  0  0  0  0  0  0  0  # atno 496  bound_to 491 

> <Gold.Score>
     Score     S(PLP)   S(hbond)     S(cho)   S(metal)  DE(clash)   DE(tors)     intcor
     44.43     -45.39       0.00       0.00       0.00       0.00       0.48       0.00

> <Gold.PLP.Fitness>
44.4307

> <Gold.PLP.PLP>
-45.3894

> <Gold.PLP.part.hbond>
0.0000

> <Gold.PLP.part.metal>
0.0000

> <Gold.PLP.part.buried>
0.7434

> <Gold.PLP.part.nonpolar>
-46.8442

> <Gold.PLP.part.repulsive>
0.0896

> <Gold.PLP.ligand.clash>
0.0000

> <Gold.PLP.ligand.torsion>
0.4794

> <Gold.PLP.Chemscore.Hbond>
0.0000

> <Gold.PLP.Chemscore.CHOScore>
0.0000

> <Gold.PLP.Chemscore.Metal>
0.0000

> <Gold.PLP.Chemscore.Internal.Correction>
0.0000

