#       Name:                EN300-17023_i001
#       Creating user name   aseyller
#       Creation time:       Fri Apr 21 16:43:32 2023


#       File generated by GOLD software.
#

@<TRIPOS>MOLECULE
EN300-17023_i001|benzaldehydes|mol2|73|dock3
    21    22     1
SMALL
USER_CHARGES


@<TRIPOS>ATOM
      1 Cl1         32.5503  37.8282  34.6612 Cl             1 <1>                0.0000
      2 C2          31.4440  37.5556  35.9710 C.ar           1 <1>                0.0000
      3 C3          30.1248  37.9618  35.8552 C.ar           1 <1>                0.0000
      4 C4          29.2411  37.7482  36.8920 C.ar           1 <1>                0.0000
      5 C5          29.6788  37.1204  38.0607 C.ar           1 <1>                0.0000
      6 C6          31.0104  36.7128  38.1708 C.ar           1 <1>                0.0000
      7 C7          31.8829  36.9279  37.1250 C.ar           1 <1>                0.0000
      8 C8          28.7382  36.8891  39.1746 C.2            1 <1>                0.0000
      9 C9          29.0680  36.3870  40.4144 C.2            1 <1>                0.0000
     10 C10         27.8888  36.3303  41.1587 C.2            1 <1>                0.0000
     11 C11         26.8772  36.8023  40.3418 C.2            1 <1>                0.0000
     12 C12         25.5161  36.9183  40.6938 C.2            1 <1>                0.0000
     13 O13         25.1808  36.8365  41.8585 O.2            1 <1>                0.0000
     14 O14         27.4185  37.1384  39.1511 O.3            1 <1>                0.0000
     15 H15         29.7877  38.4470  34.9512 H              1 <1>                0.0000
     16 H16         28.2130  38.0660  36.8008 H              1 <1>                0.0000
     17 H17         31.3548  36.2269  39.0718 H              1 <1>                0.0000
     18 H18         32.9125  36.6129  37.2087 H              1 <1>                0.0000
     19 H19         30.0523  36.0925  40.7471 H              1 <1>                0.0000
     20 H20         27.7857  35.9840  42.1765 H              1 <1>                0.0000
     21 H21         24.7721  37.0798  39.9277 H              1 <1>                0.0000
@<TRIPOS>BOND
    1    1    2 1     
    2    2    3 ar    
    3    2    7 ar    
    4    3    4 ar    
    5    3   15 1     
    6    4    5 ar    
    7    4   16 1     
    8    5    6 ar    
    9    5    8 1     
   10    6    7 ar    
   11    6   17 1     
   12    7   18 1     
   13    8    9 2     
   14    8   14 1     
   15    9   10 1     
   16    9   19 1     
   17   10   11 2     
   18   10   20 1     
   19   11   12 1     
   20   11   14 1     
   21   12   13 2     
   22   12   21 1     
@<TRIPOS>SUBSTRUCTURE
      1 ****           1
@<TRIPOS>COMMENT
> <Gold.Version>
2022.2.0

> <Gold.Id.Protein>
1qkm|1qkm_protein|mol2

> <Gold.Protein.RotatedTorsions>
[  496  491  490  487 ] final  -83.48 input  -89.99 | X-H torsion

> <Gold.Protein.ActiveResidues>
 MET295  LEU298  THR299  LEU301  ALA302  GLU305  TRP335  MET336  LEU339  MET340 
 GLY342  LEU343  ARG346  PHE356  ILE373  ILE376  PHE377  LEU380  LYS471  GLY472 
 MET473  HIS475  LEU476  LEU477  ASN478  MET479  VAL484  VAL487 

> <Gold.Protein.RotatedAtoms>
   36.6974   34.6907   41.1600 H   0  0  0  0  0  0  0  0  0  0  0  0  # atno 496  bound_to 491 

> <Gold.Score>
     Score     S(PLP)   S(hbond)     S(cho)   S(metal)  DE(clash)   DE(tors)     intcor
     47.96     -46.74       0.45       0.00       0.00       0.00       0.06       0.00

> <Gold.PLP.Fitness>
47.9650

> <Gold.PLP.PLP>
-46.7406

> <Gold.PLP.part.hbond>
-1.0000

> <Gold.PLP.part.metal>
0.0000

> <Gold.PLP.part.buried>
-3.2276

> <Gold.PLP.part.nonpolar>
-43.8987

> <Gold.PLP.part.repulsive>
0.4499

> <Gold.PLP.ligand.clash>
0.0000

> <Gold.PLP.ligand.torsion>
0.0598

> <Gold.PLP.Chemscore.Hbond>
0.4480

> <Gold.PLP.Chemscore.CHOScore>
0.0000

> <Gold.PLP.Chemscore.Metal>
0.0000

> <Gold.Chemscore.Hbonds>
donor molecule, donor type, donor heavy atom, donor atom, acceptor molecule, acceptor atom, score
      P1  H  1258  1270       L1    13  0.45

> <Gold.PLP.Chemscore.Internal.Correction>
0.0001

