#       Name:                EN300-17023_i001
#       Creating user name   aseyller
#       Creation time:       Fri Apr 21 16:43:40 2023


#       File generated by GOLD software.
#

@<TRIPOS>MOLECULE
EN300-17023_i001|benzaldehydes|mol2|73|dock18
    21    22     1
SMALL
USER_CHARGES


@<TRIPOS>ATOM
      1 Cl1         26.0806  36.4829  40.7427 Cl             1 <1>                0.0000
      2 C2          27.4923  36.5247  39.7332 C.ar           1 <1>                0.0000
      3 C3          28.6656  35.9274  40.1635 C.ar           1 <1>                0.0000
      4 C4          29.7904  35.9572  39.3663 C.ar           1 <1>                0.0000
      5 C5          29.7446  36.5911  38.1224 C.ar           1 <1>                0.0000
      6 C6          28.5580  37.1911  37.6941 C.ar           1 <1>                0.0000
      7 C7          27.4388  37.1503  38.4986 C.ar           1 <1>                0.0000
      8 C8          30.9451  36.6271  37.2642 C.2            1 <1>                0.0000
      9 C9          32.1433  36.0017  37.5309 C.2            1 <1>                0.0000
     10 C10         33.0007  36.2921  36.4686 C.2            1 <1>                0.0000
     11 C11         32.2907  37.0882  35.5879 C.2            1 <1>                0.0000
     12 C12         32.7767  37.6140  34.3725 C.2            1 <1>                0.0000
     13 O13         32.1311  38.4484  33.7703 O.2            1 <1>                0.0000
     14 O14         31.0503  37.2704  36.0897 O.3            1 <1>                0.0000
     15 H15         28.6997  35.4376  41.1254 H              1 <1>                0.0000
     16 H16         30.7048  35.4917  39.7033 H              1 <1>                0.0000
     17 H17         28.5162  37.6828  36.7333 H              1 <1>                0.0000
     18 H18         26.5207  37.6135  38.1686 H              1 <1>                0.0000
     19 H19         32.3754  35.4011  38.3979 H              1 <1>                0.0000
     20 H20         34.0221  35.9597  36.3561 H              1 <1>                0.0000
     21 H21         33.7228  37.2747  33.9772 H              1 <1>                0.0000
@<TRIPOS>BOND
    1    1    2 1     
    2    2    3 ar    
    3    2    7 ar    
    4    3    4 ar    
    5    3   15 1     
    6    4    5 ar    
    7    4   16 1     
    8    5    6 ar    
    9    5    8 1     
   10    6    7 ar    
   11    6   17 1     
   12    7   18 1     
   13    8    9 2     
   14    8   14 1     
   15    9   10 1     
   16    9   19 1     
   17   10   11 2     
   18   10   20 1     
   19   11   12 1     
   20   11   14 1     
   21   12   13 2     
   22   12   21 1     
@<TRIPOS>SUBSTRUCTURE
      1 ****           1
@<TRIPOS>COMMENT
> <Gold.Version>
2022.2.0

> <Gold.Id.Protein>
1qkm|1qkm_protein|mol2

> <Gold.Protein.RotatedTorsions>
[  496  491  490  487 ] final  142.02 input  -89.99 | X-H torsion

> <Gold.Protein.ActiveResidues>
 MET295  LEU298  THR299  LEU301  ALA302  GLU305  TRP335  MET336  LEU339  MET340 
 GLY342  LEU343  ARG346  PHE356  ILE373  ILE376  PHE377  LEU380  LYS471  GLY472 
 MET473  HIS475  LEU476  LEU477  ASN478  MET479  VAL484  VAL487 

> <Gold.Protein.RotatedAtoms>
   37.2252   33.0393   41.3031 H   0  0  0  0  0  0  0  0  0  0  0  0  # atno 496  bound_to 491 

> <Gold.Score>
     Score     S(PLP)   S(hbond)     S(cho)   S(metal)  DE(clash)   DE(tors)     intcor
     43.75     -43.82       0.00       0.00       0.00       0.00       0.03       0.00

> <Gold.PLP.Fitness>
43.7501

> <Gold.PLP.PLP>
-43.8156

> <Gold.PLP.part.hbond>
0.0000

> <Gold.PLP.part.metal>
0.0000

> <Gold.PLP.part.buried>
-1.6237

> <Gold.PLP.part.nonpolar>
-43.4753

> <Gold.PLP.part.repulsive>
0.1636

> <Gold.PLP.ligand.clash>
0.0000

> <Gold.PLP.ligand.torsion>
0.0327

> <Gold.PLP.Chemscore.Hbond>
0.0000

> <Gold.PLP.Chemscore.CHOScore>
0.0000

> <Gold.PLP.Chemscore.Metal>
0.0000

> <Gold.PLP.Chemscore.Internal.Correction>
0.0000

