#       Name:                EN300-17023_i001
#       Creating user name   aseyller
#       Creation time:       Fri Apr 21 16:43:34 2023


#       File generated by GOLD software.
#

@<TRIPOS>MOLECULE
EN300-17023_i001|benzaldehydes|mol2|73|dock6
    21    22     1
SMALL
USER_CHARGES


@<TRIPOS>ATOM
      1 Cl1         33.5559  36.1194  36.1116 Cl             1 <1>                0.0000
      2 C2          32.0155  36.3384  36.8815 C.ar           1 <1>                0.0000
      3 C3          30.9760  36.9348  36.1869 C.ar           1 <1>                0.0000
      4 C4          29.7501  37.1116  36.7928 C.ar           1 <1>                0.0000
      5 C5          29.5576  36.6876  38.1098 C.ar           1 <1>                0.0000
      6 C6          30.6098  36.0864  38.8046 C.ar           1 <1>                0.0000
      7 C7          31.8295  35.9110  38.1858 C.ar           1 <1>                0.0000
      8 C8          28.2479  36.8743  38.7647 C.2            1 <1>                0.0000
      9 C9          27.0865  37.2744  38.1408 C.2            1 <1>                0.0000
     10 C10         26.0929  37.3222  39.1196 C.2            1 <1>                0.0000
     11 C11         26.6871  36.9477  40.3113 C.2            1 <1>                0.0000
     12 C12         26.0443  36.8582  41.5637 C.2            1 <1>                0.0000
     13 O13         24.8540  37.0838  41.6530 O.2            1 <1>                0.0000
     14 O14         27.9875  36.6770  40.0676 O.3            1 <1>                0.0000
     15 H15         31.1261  37.2622  35.1687 H              1 <1>                0.0000
     16 H16         28.9406  37.5774  36.2503 H              1 <1>                0.0000
     17 H17         30.4673  35.7564  39.8231 H              1 <1>                0.0000
     18 H18         32.6438  35.4461  38.7217 H              1 <1>                0.0000
     19 H19         26.9677  37.5074  37.0929 H              1 <1>                0.0000
     20 H20         25.0591  37.5990  38.9747 H              1 <1>                0.0000
     21 H21         26.6104  36.5891  42.4433 H              1 <1>                0.0000
@<TRIPOS>BOND
    1    1    2 1     
    2    2    3 ar    
    3    2    7 ar    
    4    3    4 ar    
    5    3   15 1     
    6    4    5 ar    
    7    4   16 1     
    8    5    6 ar    
    9    5    8 1     
   10    6    7 ar    
   11    6   17 1     
   12    7   18 1     
   13    8    9 2     
   14    8   14 1     
   15    9   10 1     
   16    9   19 1     
   17   10   11 2     
   18   10   20 1     
   19   11   12 1     
   20   11   14 1     
   21   12   13 2     
   22   12   21 1     
@<TRIPOS>SUBSTRUCTURE
      1 ****           1
@<TRIPOS>COMMENT
> <Gold.Version>
2022.2.0

> <Gold.Id.Protein>
1qkm|1qkm_protein|mol2

> <Gold.Protein.RotatedTorsions>
[  496  491  490  487 ] final  128.99 input  -89.99 | X-H torsion

> <Gold.Protein.ActiveResidues>
 MET295  LEU298  THR299  LEU301  ALA302  GLU305  TRP335  MET336  LEU339  MET340 
 GLY342  LEU343  ARG346  PHE356  ILE373  ILE376  PHE377  LEU380  LYS471  GLY472 
 MET473  HIS475  LEU476  LEU477  ASN478  MET479  VAL484  VAL487 

> <Gold.Protein.RotatedAtoms>
   37.1461   32.9671   41.4884 H   0  0  0  0  0  0  0  0  0  0  0  0  # atno 496  bound_to 491 

> <Gold.Score>
     Score     S(PLP)   S(hbond)     S(cho)   S(metal)  DE(clash)   DE(tors)     intcor
     47.61     -46.45       0.42       0.00       0.00       0.00       0.04       0.00

> <Gold.PLP.Fitness>
47.6100

> <Gold.PLP.PLP>
-46.4485

> <Gold.PLP.part.hbond>
-1.0000

> <Gold.PLP.part.metal>
0.0000

> <Gold.PLP.part.buried>
-3.3256

> <Gold.PLP.part.nonpolar>
-42.8808

> <Gold.PLP.part.repulsive>
0.2939

> <Gold.PLP.ligand.clash>
0.0000

> <Gold.PLP.ligand.torsion>
0.0433

> <Gold.PLP.Chemscore.Hbond>
0.4160

> <Gold.PLP.Chemscore.CHOScore>
0.0000

> <Gold.PLP.Chemscore.Metal>
0.0000

> <Gold.Chemscore.Hbonds>
donor molecule, donor type, donor heavy atom, donor atom, acceptor molecule, acceptor atom, score
      P1  H  1258  1270       L1    13  0.42

> <Gold.PLP.Chemscore.Internal.Correction>
0.0001

