#       Name:                EN300-17023_i001
#       Creating user name   aseyller
#       Creation time:       Fri Apr 21 16:43:33 2023


#       File generated by GOLD software.
#

@<TRIPOS>MOLECULE
EN300-17023_i001|benzaldehydes|mol2|73|dock5
    21    22     1
SMALL
USER_CHARGES


@<TRIPOS>ATOM
      1 Cl1         25.3199  37.1487  41.4699 Cl             1 <1>                0.0000
      2 C2          26.7892  36.6540  40.6889 C.ar           1 <1>                0.0000
      3 C3          27.8554  36.2015  41.4486 C.ar           1 <1>                0.0000
      4 C4          29.0252  35.8072  40.8343 C.ar           1 <1>                0.0000
      5 C5          29.1335  35.8643  39.4427 C.ar           1 <1>                0.0000
      6 C6          28.0543  36.3211  38.6823 C.ar           1 <1>                0.0000
      7 C7          26.8883  36.7081  39.3084 C.ar           1 <1>                0.0000
      8 C8          30.3831  35.4442  38.7786 C.2            1 <1>                0.0000
      9 C9          30.9192  34.1754  38.8026 C.2            1 <1>                0.0000
     10 C10         32.0961  34.2153  38.0536 C.2            1 <1>                0.0000
     11 C11         32.2360  35.5137  37.5975 C.2            1 <1>                0.0000
     12 C12         33.2914  36.0002  36.7979 C.2            1 <1>                0.0000
     13 O13         33.0629  36.7958  35.9088 O.2            1 <1>                0.0000
     14 O14         31.1848  36.2337  38.0450 O.3            1 <1>                0.0000
     15 H15         27.7704  36.1579  42.5244 H              1 <1>                0.0000
     16 H16         29.8561  35.4554  41.4278 H              1 <1>                0.0000
     17 H17         28.1319  36.3676  37.6060 H              1 <1>                0.0000
     18 H18         26.0531  37.0610  38.7217 H              1 <1>                0.0000
     19 H19         30.5072  33.3133  39.3061 H              1 <1>                0.0000
     20 H20         32.7686  33.3911  37.8665 H              1 <1>                0.0000
     21 H21         34.3026  35.6653  36.9762 H              1 <1>                0.0000
@<TRIPOS>BOND
    1    1    2 1     
    2    2    3 ar    
    3    2    7 ar    
    4    3    4 ar    
    5    3   15 1     
    6    4    5 ar    
    7    4   16 1     
    8    5    6 ar    
    9    5    8 1     
   10    6    7 ar    
   11    6   17 1     
   12    7   18 1     
   13    8    9 2     
   14    8   14 1     
   15    9   10 1     
   16    9   19 1     
   17   10   11 2     
   18   10   20 1     
   19   11   12 1     
   20   11   14 1     
   21   12   13 2     
   22   12   21 1     
@<TRIPOS>SUBSTRUCTURE
      1 ****           1
@<TRIPOS>COMMENT
> <Gold.Version>
2022.2.0

> <Gold.Id.Protein>
1qkm|1qkm_protein|mol2

> <Gold.Protein.RotatedTorsions>
[  496  491  490  487 ] final   55.18 input  -89.99 | X-H torsion

> <Gold.Protein.ActiveResidues>
 MET295  LEU298  THR299  LEU301  ALA302  GLU305  TRP335  MET336  LEU339  MET340 
 GLY342  LEU343  ARG346  PHE356  ILE373  ILE376  PHE377  LEU380  LYS471  GLY472 
 MET473  HIS475  LEU476  LEU477  ASN478  MET479  VAL484  VAL487 

> <Gold.Protein.RotatedAtoms>
   36.5126   33.3826   42.3303 H   0  0  0  0  0  0  0  0  0  0  0  0  # atno 496  bound_to 491 

> <Gold.Score>
     Score     S(PLP)   S(hbond)     S(cho)   S(metal)  DE(clash)   DE(tors)     intcor
     48.80     -51.77       0.00       0.00       0.00       0.00       1.49       0.00

> <Gold.PLP.Fitness>
48.7956

> <Gold.PLP.PLP>
-51.7698

> <Gold.PLP.part.hbond>
0.0000

> <Gold.PLP.part.metal>
0.0000

> <Gold.PLP.part.buried>
-1.0776

> <Gold.PLP.part.nonpolar>
-51.2816

> <Gold.PLP.part.repulsive>
0.1047

> <Gold.PLP.ligand.clash>
0.0000

> <Gold.PLP.ligand.torsion>
1.4871

> <Gold.PLP.Chemscore.Hbond>
0.0000

> <Gold.PLP.Chemscore.CHOScore>
0.0000

> <Gold.PLP.Chemscore.Metal>
0.0000

> <Gold.PLP.Chemscore.Internal.Correction>
0.0001

