#       Name:                EN300-17023_i001
#       Creating user name   aseyller
#       Creation time:       Fri Apr 21 16:43:37 2023


#       File generated by GOLD software.
#

@<TRIPOS>MOLECULE
EN300-17023_i001|benzaldehydes|mol2|73|dock13
    21    22     1
SMALL
USER_CHARGES


@<TRIPOS>ATOM
      1 Cl1         33.8311  36.6948  34.9041 Cl             1 <1>                0.0000
      2 C2          32.3771  36.7596  35.8503 C.ar           1 <1>                0.0000
      3 C3          31.2269  37.3109  35.3101 C.ar           1 <1>                0.0000
      4 C4          30.0687  37.3653  36.0564 C.ar           1 <1>                0.0000
      5 C5          30.0570  36.8627  37.3597 C.ar           1 <1>                0.0000
      6 C6          31.2202  36.3076  37.8984 C.ar           1 <1>                0.0000
      7 C7          32.3706  36.2548  37.1400 C.ar           1 <1>                0.0000
      8 C8          28.8207  36.9183  38.1645 C.2            1 <1>                0.0000
      9 C9          27.5979  37.3802  37.7293 C.2            1 <1>                0.0000
     10 C10         26.7107  37.2573  38.7995 C.2            1 <1>                0.0000
     11 C11         27.4280  36.7221  39.8543 C.2            1 <1>                0.0000
     12 C12         26.9191  36.4306  41.1371 C.2            1 <1>                0.0000
     13 O13         25.7792  36.7385  41.4228 O.2            1 <1>                0.0000
     14 O14         28.6983  36.5216  39.4420 O.3            1 <1>                0.0000
     15 H15         31.2373  37.6992  34.3023 H              1 <1>                0.0000
     16 H16         29.1727  37.7961  35.6344 H              1 <1>                0.0000
     17 H17         31.2175  35.9172  38.9055 H              1 <1>                0.0000
     18 H18         33.2705  35.8255  37.5551 H              1 <1>                0.0000
     19 H19         27.3694  37.7651  36.7465 H              1 <1>                0.0000
     20 H20         25.6653  37.5285  38.8037 H              1 <1>                0.0000
     21 H21         27.5428  35.9335  41.8654 H              1 <1>                0.0000
@<TRIPOS>BOND
    1    1    2 1     
    2    2    3 ar    
    3    2    7 ar    
    4    3    4 ar    
    5    3   15 1     
    6    4    5 ar    
    7    4   16 1     
    8    5    6 ar    
    9    5    8 1     
   10    6    7 ar    
   11    6   17 1     
   12    7   18 1     
   13    8    9 2     
   14    8   14 1     
   15    9   10 1     
   16    9   19 1     
   17   10   11 2     
   18   10   20 1     
   19   11   12 1     
   20   11   14 1     
   21   12   13 2     
   22   12   21 1     
@<TRIPOS>SUBSTRUCTURE
      1 ****           1
@<TRIPOS>COMMENT
> <Gold.Version>
2022.2.0

> <Gold.Id.Protein>
1qkm|1qkm_protein|mol2

> <Gold.Protein.RotatedTorsions>
[  496  491  490  487 ] final  -61.75 input  -89.99 | X-H torsion

> <Gold.Protein.ActiveResidues>
 MET295  LEU298  THR299  LEU301  ALA302  GLU305  TRP335  MET336  LEU339  MET340 
 GLY342  LEU343  ARG346  PHE356  ILE373  ILE376  PHE377  LEU380  LYS471  GLY472 
 MET473  HIS475  LEU476  LEU477  ASN478  MET479  VAL484  VAL487 

> <Gold.Protein.RotatedAtoms>
   36.5107   34.7341   41.4594 H   0  0  0  0  0  0  0  0  0  0  0  0  # atno 496  bound_to 491 

> <Gold.Score>
     Score     S(PLP)   S(hbond)     S(cho)   S(metal)  DE(clash)   DE(tors)     intcor
     44.37     -44.39       0.00       0.00       0.00       0.00       0.01       0.00

> <Gold.PLP.Fitness>
44.3727

> <Gold.PLP.PLP>
-44.3942

> <Gold.PLP.part.hbond>
0.0000

> <Gold.PLP.part.metal>
0.0000

> <Gold.PLP.part.buried>
-3.2876

> <Gold.PLP.part.nonpolar>
-41.1695

> <Gold.PLP.part.repulsive>
0.2515

> <Gold.PLP.ligand.clash>
0.0000

> <Gold.PLP.ligand.torsion>
0.0108

> <Gold.PLP.Chemscore.Hbond>
0.0000

> <Gold.PLP.Chemscore.CHOScore>
0.0000

> <Gold.PLP.Chemscore.Metal>
0.0000

> <Gold.PLP.Chemscore.Internal.Correction>
0.0000

