#       Name:                EN300-17023_i001
#       Creating user name   aseyller
#       Creation time:       Fri Apr 21 16:43:36 2023


#       File generated by GOLD software.
#

@<TRIPOS>MOLECULE
EN300-17023_i001|benzaldehydes|mol2|73|dock10
    21    22     1
SMALL
USER_CHARGES


@<TRIPOS>ATOM
      1 Cl1         33.6310  36.7031  34.6009 Cl             1 <1>                0.0000
      2 C2          32.3395  36.6580  35.7601 C.ar           1 <1>                0.0000
      3 C3          31.0887  37.1451  35.4181 C.ar           1 <1>                0.0000
      4 C4          30.0587  37.1121  36.3342 C.ar           1 <1>                0.0000
      5 C5          30.2787  36.5857  37.6093 C.ar           1 <1>                0.0000
      6 C6          31.5423  36.0956  37.9477 C.ar           1 <1>                0.0000
      7 C7          32.5627  36.1299  37.0209 C.ar           1 <1>                0.0000
      8 C8          29.1806  36.5478  38.5952 C.2            1 <1>                0.0000
      9 C9          29.2764  36.0819  39.8881 C.2            1 <1>                0.0000
     10 C10         28.0154  36.2261  40.4685 C.2            1 <1>                0.0000
     11 C11         27.1918  36.7775  39.5035 C.2            1 <1>                0.0000
     12 C12         25.8263  37.0928  39.6637 C.2            1 <1>                0.0000
     13 O13         25.3429  37.1515  40.7767 O.2            1 <1>                0.0000
     14 O14         27.9221  36.9670  38.3835 O.3            1 <1>                0.0000
     15 H15         30.9199  37.5518  34.4319 H              1 <1>                0.0000
     16 H16         29.0841  37.4929  36.0667 H              1 <1>                0.0000
     17 H17         31.7187  35.6873  38.9320 H              1 <1>                0.0000
     18 H18         33.5400  35.7511  37.2811 H              1 <1>                0.0000
     19 H19         30.1598  35.6806  40.3625 H              1 <1>                0.0000
     20 H20         27.7362  35.9581  41.4768 H              1 <1>                0.0000
     21 H21         25.2105  37.2822  38.7969 H              1 <1>                0.0000
@<TRIPOS>BOND
    1    1    2 1     
    2    2    3 ar    
    3    2    7 ar    
    4    3    4 ar    
    5    3   15 1     
    6    4    5 ar    
    7    4   16 1     
    8    5    6 ar    
    9    5    8 1     
   10    6    7 ar    
   11    6   17 1     
   12    7   18 1     
   13    8    9 2     
   14    8   14 1     
   15    9   10 1     
   16    9   19 1     
   17   10   11 2     
   18   10   20 1     
   19   11   12 1     
   20   11   14 1     
   21   12   13 2     
   22   12   21 1     
@<TRIPOS>SUBSTRUCTURE
      1 ****           1
@<TRIPOS>COMMENT
> <Gold.Version>
2022.2.0

> <Gold.Id.Protein>
1qkm|1qkm_protein|mol2

> <Gold.Protein.RotatedTorsions>
[  496  491  490  487 ] final  -81.16 input  -89.99 | X-H torsion

> <Gold.Protein.ActiveResidues>
 MET295  LEU298  THR299  LEU301  ALA302  GLU305  TRP335  MET336  LEU339  MET340 
 GLY342  LEU343  ARG346  PHE356  ILE373  ILE376  PHE377  LEU380  LYS471  GLY472 
 MET473  HIS475  LEU476  LEU477  ASN478  MET479  VAL484  VAL487 

> <Gold.Protein.RotatedAtoms>
   36.6764   34.7014   41.1901 H   0  0  0  0  0  0  0  0  0  0  0  0  # atno 496  bound_to 491 

> <Gold.Score>
     Score     S(PLP)   S(hbond)     S(cho)   S(metal)  DE(clash)   DE(tors)     intcor
     45.24     -45.35       0.00       0.00       0.00       0.00       0.05       0.00

> <Gold.PLP.Fitness>
45.2432

> <Gold.PLP.PLP>
-45.3526

> <Gold.PLP.part.hbond>
0.0000

> <Gold.PLP.part.metal>
0.0000

> <Gold.PLP.part.buried>
-2.9828

> <Gold.PLP.part.nonpolar>
-43.9675

> <Gold.PLP.part.repulsive>
0.1480

> <Gold.PLP.ligand.clash>
0.0000

> <Gold.PLP.ligand.torsion>
0.0547

> <Gold.PLP.Chemscore.Hbond>
0.0000

> <Gold.PLP.Chemscore.CHOScore>
0.0000

> <Gold.PLP.Chemscore.Metal>
0.0000

> <Gold.PLP.Chemscore.Internal.Correction>
0.0001

