#       Name:                EN300-17023_i001
#       Creating user name   aseyller
#       Creation time:       Fri Apr 21 16:43:31 2023


#       File generated by GOLD software.
#

@<TRIPOS>MOLECULE
EN300-17023_i001
    21    22     1
SMALL
USER_CHARGES


@<TRIPOS>ATOM
      1 Cl1         -5.2234   0.7067  -0.0013 Cl             1 <1>                0.0000
      2 C2          -3.5078   0.4413  -0.0009 C.ar           1 <1>                0.0000
      3 C3          -2.6427   1.5231   0.0006 C.ar           1 <1>                0.0000
      4 C4          -1.2790   1.3190   0.0009 C.ar           1 <1>                0.0000
      5 C5          -0.7705   0.0179   0.0001 C.ar           1 <1>                0.0000
      6 C6          -1.6484  -1.0687  -0.0009 C.ar           1 <1>                0.0000
      7 C7          -3.0100  -0.8512   0.0036 C.ar           1 <1>                0.0000
      8 C8           0.6883  -0.2078  -0.0001 C.2            1 <1>                0.0000
      9 C9           1.3120  -1.4362  -0.0008 C.2            1 <1>                0.0000
     10 C10          2.6868  -1.1960  -0.0007 C.2            1 <1>                0.0000
     11 C11          2.8528   0.1773   0.0001 C.2            1 <1>                0.0000
     12 C12          4.0865   0.8612   0.0005 C.2            1 <1>                0.0000
     13 O13          4.1077   2.0758   0.0012 O.2            1 <1>                0.0000
     14 O14          1.6299   0.7502  -0.0054 O.3            1 <1>                0.0000
     15 H15         -3.0371   2.5285   0.0012 H              1 <1>                0.0000
     16 H16         -0.6055   2.1633   0.0013 H              1 <1>                0.0000
     17 H17         -1.2614  -2.0771  -0.0015 H              1 <1>                0.0000
     18 H18         -3.6898  -1.6904   0.0032 H              1 <1>                0.0000
     19 H19          0.8287  -2.4020  -0.0008 H              1 <1>                0.0000
     20 H20          3.4703  -1.9393  -0.0006 H              1 <1>                0.0000
     21 H21          5.0123   0.3050   0.0002 H              1 <1>                0.0000
@<TRIPOS>BOND
    1    1    2 1     
    2    2    3 ar    
    3    2    7 ar    
    4    3    4 ar    
    5    3   15 1     
    6    4    5 ar    
    7    4   16 1     
    8    5    6 ar    
    9    5    8 1     
   10    6    7 ar    
   11    6   17 1     
   12    7   18 1     
   13    8    9 2     
   14    8   14 1     
   15    9   10 1     
   16    9   19 1     
   17   10   11 2     
   18   10   20 1     
   19   11   12 1     
   20   11   14 1     
   21   12   13 2     
   22   12   21 1     
@<TRIPOS>SUBSTRUCTURE
      1 ****           1
