#       Name:                EN300-17023_i001
#       Creating user name   aseyller
#       Creation time:       Fri Apr 21 16:43:40 2023


#       File generated by GOLD software.
#

@<TRIPOS>MOLECULE
EN300-17023_i001|benzaldehydes|mol2|73|dock19
    21    22     1
SMALL
USER_CHARGES


@<TRIPOS>ATOM
      1 Cl1         25.2471  36.3267  41.4986 Cl             1 <1>                0.0000
      2 C2          26.3629  36.7722  40.2456 C.ar           1 <1>                0.0000
      3 C3          25.9317  37.5475  39.1819 C.ar           1 <1>                0.0000
      4 C4          26.8130  37.9047  38.1834 C.ar           1 <1>                0.0000
      5 C5          28.1434  37.4834  38.2466 C.ar           1 <1>                0.0000
      6 C6          28.5720  36.7021  39.3223 C.ar           1 <1>                0.0000
      7 C7          27.6819  36.3556  40.3168 C.ar           1 <1>                0.0000
      8 C8          29.0921  37.8617  37.1808 C.2            1 <1>                0.0000
      9 C9          28.9553  38.9330  36.3255 C.2            1 <1>                0.0000
     10 C10         30.0664  38.9256  35.4810 C.2            1 <1>                0.0000
     11 C11         30.8449  37.8446  35.8538 C.2            1 <1>                0.0000
     12 C12         32.0664  37.4617  35.2614 C.2            1 <1>                0.0000
     13 O13         32.5534  38.1411  34.3800 O.2            1 <1>                0.0000
     14 O14         30.2363  37.2225  36.8865 O.3            1 <1>                0.0000
     15 H15         24.9029  37.8726  39.1342 H              1 <1>                0.0000
     16 H16         26.4754  38.5087  37.3541 H              1 <1>                0.0000
     17 H17         29.5994  36.3732  39.3769 H              1 <1>                0.0000
     18 H18         28.0121  35.7519  41.1492 H              1 <1>                0.0000
     19 H19         28.1420  39.6434  36.3107 H              1 <1>                0.0000
     20 H20         30.2776  39.6284  34.6886 H              1 <1>                0.0000
     21 H21         32.5688  36.5644  35.5915 H              1 <1>                0.0000
@<TRIPOS>BOND
    1    1    2 1     
    2    2    3 ar    
    3    2    7 ar    
    4    3    4 ar    
    5    3   15 1     
    6    4    5 ar    
    7    4   16 1     
    8    5    6 ar    
    9    5    8 1     
   10    6    7 ar    
   11    6   17 1     
   12    7   18 1     
   13    8    9 2     
   14    8   14 1     
   15    9   10 1     
   16    9   19 1     
   17   10   11 2     
   18   10   20 1     
   19   11   12 1     
   20   11   14 1     
   21   12   13 2     
   22   12   21 1     
@<TRIPOS>SUBSTRUCTURE
      1 ****           1
@<TRIPOS>COMMENT
> <Gold.Version>
2022.2.0

> <Gold.Id.Protein>
1qkm|1qkm_protein|mol2

> <Gold.Protein.RotatedTorsions>
[  496  491  490  487 ] final -151.75 input  -89.99 | X-H torsion

> <Gold.Protein.ActiveResidues>
 MET295  LEU298  THR299  LEU301  ALA302  GLU305  TRP335  MET336  LEU339  MET340 
 GLY342  LEU343  ARG346  PHE356  ILE373  ILE376  PHE377  LEU380  LYS471  GLY472 
 MET473  HIS475  LEU476  LEU477  ASN478  MET479  VAL484  VAL487 

> <Gold.Protein.RotatedAtoms>
   37.2399   33.8925   40.7253 H   0  0  0  0  0  0  0  0  0  0  0  0  # atno 496  bound_to 491 

> <Gold.Score>
     Score     S(PLP)   S(hbond)     S(cho)   S(metal)  DE(clash)   DE(tors)     intcor
     43.31     -43.74       0.00       0.00       0.00       0.00       0.21       0.00

> <Gold.PLP.Fitness>
43.3112

> <Gold.PLP.PLP>
-43.7396

> <Gold.PLP.part.hbond>
0.0000

> <Gold.PLP.part.metal>
0.0000

> <Gold.PLP.part.buried>
-0.1568

> <Gold.PLP.part.nonpolar>
-43.4950

> <Gold.PLP.part.repulsive>
0.1484

> <Gold.PLP.ligand.clash>
0.0000

> <Gold.PLP.ligand.torsion>
0.2142

> <Gold.PLP.Chemscore.Hbond>
0.0000

> <Gold.PLP.Chemscore.CHOScore>
0.0000

> <Gold.PLP.Chemscore.Metal>
0.0000

> <Gold.PLP.Chemscore.Internal.Correction>
0.0000

