#       Name:                EN300-17023_i001
#       Creating user name   aseyller
#       Creation time:       Fri Apr 21 16:43:31 2023


#       File generated by GOLD software.
#

@<TRIPOS>MOLECULE
EN300-17023_i001|benzaldehydes|mol2|73|dock1
    21    22     1
SMALL
USER_CHARGES


@<TRIPOS>ATOM
      1 Cl1         33.3436  36.3960  35.4335 Cl             1 <1>                0.0000
      2 C2          32.0862  36.4089  36.6304 C.ar           1 <1>                0.0000
      3 C3          32.1974  35.6093  37.7560 C.ar           1 <1>                0.0000
      4 C4          31.2021  35.6150  38.7102 C.ar           1 <1>                0.0000
      5 C5          30.0801  36.4297  38.5401 C.ar           1 <1>                0.0000
      6 C6          29.9744  37.2341  37.4030 C.ar           1 <1>                0.0000
      7 C7          30.9788  37.2229  36.4584 C.ar           1 <1>                0.0000
      8 C8          29.0106  36.4403  39.5576 C.2            1 <1>                0.0000
      9 C9          29.1515  36.0673  40.8763 C.2            1 <1>                0.0000
     10 C10         27.9043  36.2283  41.4815 C.2            1 <1>                0.0000
     11 C11         27.0433  36.6960  40.5050 C.2            1 <1>                0.0000
     12 C12         25.6766  36.9966  40.6824 C.2            1 <1>                0.0000
     13 O13         25.1869  36.9646  41.7937 O.2            1 <1>                0.0000
     14 O14         27.7385  36.8206  39.3540 O.3            1 <1>                0.0000
     15 H15         33.0652  34.9799  37.8863 H              1 <1>                0.0000
     16 H16         31.2895  34.9905  39.5871 H              1 <1>                0.0000
     17 H17         29.1094  37.8663  37.2657 H              1 <1>                0.0000
     18 H18         30.8985  37.8446  35.5789 H              1 <1>                0.0000
     19 H19         30.0555  35.7164  41.3515 H              1 <1>                0.0000
     20 H20         27.6584  36.0260  42.5135 H              1 <1>                0.0000
     21 H21         25.0655  37.2552  39.8303 H              1 <1>                0.0000
@<TRIPOS>BOND
    1    1    2 1     
    2    2    3 ar    
    3    2    7 ar    
    4    3    4 ar    
    5    3   15 1     
    6    4    5 ar    
    7    4   16 1     
    8    5    6 ar    
    9    5    8 1     
   10    6    7 ar    
   11    6   17 1     
   12    7   18 1     
   13    8    9 2     
   14    8   14 1     
   15    9   10 1     
   16    9   19 1     
   17   10   11 2     
   18   10   20 1     
   19   11   12 1     
   20   11   14 1     
   21   12   13 2     
   22   12   21 1     
@<TRIPOS>SUBSTRUCTURE
      1 ****           1
@<TRIPOS>COMMENT
> <Gold.Version>
2022.2.0

> <Gold.Id.Protein>
1qkm|1qkm_protein|mol2

> <Gold.Protein.RotatedTorsions>
[  496  491  490  487 ] final  172.61 input  -89.99 | X-H torsion

> <Gold.Protein.ActiveResidues>
 MET295  LEU298  THR299  LEU301  ALA302  GLU305  TRP335  MET336  LEU339  MET340 
 GLY342  LEU343  ARG346  PHE356  ILE373  ILE376  PHE377  LEU380  LYS471  GLY472 
 MET473  HIS475  LEU476  LEU477  ASN478  MET479  VAL484  VAL487 

> <Gold.Protein.RotatedAtoms>
   37.3175   33.3598   40.9339 H   0  0  0  0  0  0  0  0  0  0  0  0  # atno 496  bound_to 491 

> <Gold.Score>
     Score     S(PLP)   S(hbond)     S(cho)   S(metal)  DE(clash)   DE(tors)     intcor
     50.97     -50.25       0.39       0.00       0.00       0.00       0.22       0.00

> <Gold.PLP.Fitness>
50.9699

> <Gold.PLP.PLP>
-50.2496

> <Gold.PLP.part.hbond>
-1.0000

> <Gold.PLP.part.metal>
0.0000

> <Gold.PLP.part.buried>
-2.9770

> <Gold.PLP.part.nonpolar>
-47.5409

> <Gold.PLP.part.repulsive>
0.2724

> <Gold.PLP.ligand.clash>
0.0000

> <Gold.PLP.ligand.torsion>
0.2249

> <Gold.PLP.Chemscore.Hbond>
0.3900

> <Gold.PLP.Chemscore.CHOScore>
0.0000

> <Gold.PLP.Chemscore.Metal>
0.0000

> <Gold.Chemscore.Hbonds>
donor molecule, donor type, donor heavy atom, donor atom, acceptor molecule, acceptor atom, score
      P1  H  1258  1270       L1    13  0.39

> <Gold.PLP.Chemscore.Internal.Correction>
0.0001

