#       Name:                EN300-17023_i001
#       Creating user name   aseyller
#       Creation time:       Fri Apr 21 16:43:38 2023


#       File generated by GOLD software.
#

@<TRIPOS>MOLECULE
EN300-17023_i001|benzaldehydes|mol2|73|dock15
    21    22     1
SMALL
USER_CHARGES


@<TRIPOS>ATOM
      1 Cl1         25.7957  36.4337  40.7788 Cl             1 <1>                0.0000
      2 C2          26.9436  36.9030  39.5639 C.ar           1 <1>                0.0000
      3 C3          26.5640  37.7748  38.5567 C.ar           1 <1>                0.0000
      4 C4          27.4710  38.1514  37.5888 C.ar           1 <1>                0.0000
      5 C5          28.7752  37.6521  37.6258 C.ar           1 <1>                0.0000
      6 C6          29.1517  36.7737  38.6446 C.ar           1 <1>                0.0000
      7 C7          28.2366  36.4085  39.6092 C.ar           1 <1>                0.0000
      8 C8          29.7511  38.0508  36.5925 C.2            1 <1>                0.0000
      9 C9          29.7006  39.2043  35.8409 C.2            1 <1>                0.0000
     10 C10         30.8074  39.1866  34.9910 C.2            1 <1>                0.0000
     11 C11         31.4966  38.0168  35.2562 C.2            1 <1>                0.0000
     12 C12         32.6833  37.5941  34.6217 C.2            1 <1>                0.0000
     13 O13         33.2729  36.6127  35.0278 O.2            1 <1>                0.0000
     14 O14         30.8402  37.3522  36.2315 O.3            1 <1>                0.0000
     15 H15         25.5555  38.1601  38.5292 H              1 <1>                0.0000
     16 H16         27.1736  38.8306  36.8035 H              1 <1>                0.0000
     17 H17         30.1585  36.3842  38.6786 H              1 <1>                0.0000
     18 H18         28.5265  35.7297  40.3976 H              1 <1>                0.0000
     19 H19         28.9470  39.9758  35.8982 H              1 <1>                0.0000
     20 H20         31.0742  39.9407  34.2655 H              1 <1>                0.0000
     21 H21         33.0678  38.1430  33.7747 H              1 <1>                0.0000
@<TRIPOS>BOND
    1    1    2 1     
    2    2    3 ar    
    3    2    7 ar    
    4    3    4 ar    
    5    3   15 1     
    6    4    5 ar    
    7    4   16 1     
    8    5    6 ar    
    9    5    8 1     
   10    6    7 ar    
   11    6   17 1     
   12    7   18 1     
   13    8    9 2     
   14    8   14 1     
   15    9   10 1     
   16    9   19 1     
   17   10   11 2     
   18   10   20 1     
   19   11   12 1     
   20   11   14 1     
   21   12   13 2     
   22   12   21 1     
@<TRIPOS>SUBSTRUCTURE
      1 ****           1
@<TRIPOS>COMMENT
> <Gold.Version>
2022.2.0

> <Gold.Id.Protein>
1qkm|1qkm_protein|mol2

> <Gold.Protein.RotatedTorsions>
[  496  491  490  487 ] final  -76.34 input  -89.99 | X-H torsion

> <Gold.Protein.ActiveResidues>
 MET295  LEU298  THR299  LEU301  ALA302  GLU305  TRP335  MET336  LEU339  MET340 
 GLY342  LEU343  ARG346  PHE356  ILE373  ILE376  PHE377  LEU380  LYS471  GLY472 
 MET473  HIS475  LEU476  LEU477  ASN478  MET479  VAL484  VAL487 

> <Gold.Protein.RotatedAtoms>
   36.6333   34.7190   41.2542 H   0  0  0  0  0  0  0  0  0  0  0  0  # atno 496  bound_to 491 

> <Gold.Score>
     Score     S(PLP)   S(hbond)     S(cho)   S(metal)  DE(clash)   DE(tors)     intcor
     46.73     -47.24       0.00       0.00       0.00       0.00       0.26       0.00

> <Gold.PLP.Fitness>
46.7268

> <Gold.PLP.PLP>
-47.2438

> <Gold.PLP.part.hbond>
0.0000

> <Gold.PLP.part.metal>
0.0000

> <Gold.PLP.part.buried>
-3.4953

> <Gold.PLP.part.nonpolar>
-44.2911

> <Gold.PLP.part.repulsive>
0.1456

> <Gold.PLP.ligand.clash>
0.0000

> <Gold.PLP.ligand.torsion>
0.2585

> <Gold.PLP.Chemscore.Hbond>
0.0000

> <Gold.PLP.Chemscore.CHOScore>
0.0000

> <Gold.PLP.Chemscore.Metal>
0.0000

> <Gold.PLP.Chemscore.Internal.Correction>
0.0000

