#       Name:                EN300-17023_i001
#       Creating user name   aseyller
#       Creation time:       Fri Apr 21 16:43:33 2023


#       File generated by GOLD software.
#

@<TRIPOS>MOLECULE
EN300-17023_i001|benzaldehydes|mol2|73|dock4
    21    22     1
SMALL
USER_CHARGES


@<TRIPOS>ATOM
      1 Cl1         25.5047  36.7684  41.2880 Cl             1 <1>                0.0000
      2 C2          26.7529  36.9044  40.0892 C.ar           1 <1>                0.0000
      3 C3          26.4394  37.3460  38.8143 C.ar           1 <1>                0.0000
      4 C4          27.4262  37.4562  37.8575 C.ar           1 <1>                0.0000
      5 C5          28.7445  37.1217  38.1764 C.ar           1 <1>                0.0000
      6 C6          29.0541  36.6775  39.4642 C.ar           1 <1>                0.0000
      7 C7          28.0590  36.5762  40.4132 C.ar           1 <1>                0.0000
      8 C8          29.8058  37.2368  37.1569 C.2            1 <1>                0.0000
      9 C9          29.7447  38.0062  36.0158 C.2            1 <1>                0.0000
     10 C10         30.9508  37.8265  35.3371 C.2            1 <1>                0.0000
     11 C11         31.7080  36.9494  36.0927 C.2            1 <1>                0.0000
     12 C12         33.0034  36.4901  35.7755 C.2            1 <1>                0.0000
     13 O13         33.4808  36.7252  34.6835 O.2            1 <1>                0.0000
     14 O14         30.9952  36.6133  37.1894 O.3            1 <1>                0.0000
     15 H15         25.4198  37.6042  38.5690 H              1 <1>                0.0000
     16 H16         27.1804  37.7999  36.8636 H              1 <1>                0.0000
     17 H17         30.0715  36.4174  39.7169 H              1 <1>                0.0000
     18 H18         28.2970  36.2332  41.4092 H              1 <1>                0.0000
     19 H19         28.9195  38.6298  35.7049 H              1 <1>                0.0000
     20 H20         31.2376  38.2837  34.4017 H              1 <1>                0.0000
     21 H21         33.5709  35.9294  36.5036 H              1 <1>                0.0000
@<TRIPOS>BOND
    1    1    2 1     
    2    2    3 ar    
    3    2    7 ar    
    4    3    4 ar    
    5    3   15 1     
    6    4    5 ar    
    7    4   16 1     
    8    5    6 ar    
    9    5    8 1     
   10    6    7 ar    
   11    6   17 1     
   12    7   18 1     
   13    8    9 2     
   14    8   14 1     
   15    9   10 1     
   16    9   19 1     
   17   10   11 2     
   18   10   20 1     
   19   11   12 1     
   20   11   14 1     
   21   12   13 2     
   22   12   21 1     
@<TRIPOS>SUBSTRUCTURE
      1 ****           1
@<TRIPOS>COMMENT
> <Gold.Version>
2022.2.0

> <Gold.Id.Protein>
1qkm|1qkm_protein|mol2

> <Gold.Protein.RotatedTorsions>
[  496  491  490  487 ] final   30.59 input  -89.99 | X-H torsion

> <Gold.Protein.ActiveResidues>
 MET295  LEU298  THR299  LEU301  ALA302  GLU305  TRP335  MET336  LEU339  MET340 
 GLY342  LEU343  ARG346  PHE356  ILE373  ILE376  PHE377  LEU380  LYS471  GLY472 
 MET473  HIS475  LEU476  LEU477  ASN478  MET479  VAL484  VAL487 

> <Gold.Protein.RotatedAtoms>
   36.3494   33.7462   42.3812 H   0  0  0  0  0  0  0  0  0  0  0  0  # atno 496  bound_to 491 

> <Gold.Score>
     Score     S(PLP)   S(hbond)     S(cho)   S(metal)  DE(clash)   DE(tors)     intcor
     46.62     -47.02       0.00       0.00       0.00       0.00       0.20       0.00

> <Gold.PLP.Fitness>
46.6221

> <Gold.PLP.PLP>
-47.0248

> <Gold.PLP.part.hbond>
0.0000

> <Gold.PLP.part.metal>
0.0000

> <Gold.PLP.part.buried>
-3.6677

> <Gold.PLP.part.nonpolar>
-44.4516

> <Gold.PLP.part.repulsive>
0.1819

> <Gold.PLP.ligand.clash>
0.0000

> <Gold.PLP.ligand.torsion>
0.2014

> <Gold.PLP.Chemscore.Hbond>
0.0000

> <Gold.PLP.Chemscore.CHOScore>
0.0000

> <Gold.PLP.Chemscore.Metal>
0.0000

> <Gold.PLP.Chemscore.Internal.Correction>
0.0001

