#       Name:                EN300-17023_i001
#       Creating user name   aseyller
#       Creation time:       Fri Apr 21 16:43:35 2023


#       File generated by GOLD software.
#

@<TRIPOS>MOLECULE
EN300-17023_i001|benzaldehydes|mol2|73|dock8
    21    22     1
SMALL
USER_CHARGES


@<TRIPOS>ATOM
      1 Cl1         25.3822  36.7158  41.4450 Cl             1 <1>                0.0000
      2 C2          26.7250  36.8363  40.3514 C.ar           1 <1>                0.0000
      3 C3          26.5080  37.1876  39.0291 C.ar           1 <1>                0.0000
      4 C4          27.5703  37.2850  38.1554 C.ar           1 <1>                0.0000
      5 C5          28.8674  37.0290  38.6064 C.ar           1 <1>                0.0000
      6 C6          29.0794  36.6758  39.9412 C.ar           1 <1>                0.0000
      7 C7          28.0092  36.5864  40.8060 C.ar           1 <1>                0.0000
      8 C8          30.0092  37.1310  37.6763 C.2            1 <1>                0.0000
      9 C9          31.2833  36.6632  37.9127 C.2            1 <1>                0.0000
     10 C10         32.0448  36.9640  36.7825 C.2            1 <1>                0.0000
     11 C11         31.2034  37.6078  35.8931 C.2            1 <1>                0.0000
     12 C12         31.5616  38.0893  34.6166 C.2            1 <1>                0.0000
     13 O13         32.6990  37.9517  34.2126 O.2            1 <1>                0.0000
     14 O14         29.9784  37.6905  36.4555 O.3            1 <1>                0.0000
     15 H15         25.5047  37.3852  38.6817 H              1 <1>                0.0000
     16 H16         27.3998  37.5582  37.1246 H              1 <1>                0.0000
     17 H17         30.0800  36.4767  40.2960 H              1 <1>                0.0000
     18 H18         28.1718  36.3137  41.8383 H              1 <1>                0.0000
     19 H19         31.6276  36.1597  38.8039 H              1 <1>                0.0000
     20 H20         33.0901  36.7382  36.6317 H              1 <1>                0.0000
     21 H21         30.8247  38.5804  33.9983 H              1 <1>                0.0000
@<TRIPOS>BOND
    1    1    2 1     
    2    2    3 ar    
    3    2    7 ar    
    4    3    4 ar    
    5    3   15 1     
    6    4    5 ar    
    7    4   16 1     
    8    5    6 ar    
    9    5    8 1     
   10    6    7 ar    
   11    6   17 1     
   12    7   18 1     
   13    8    9 2     
   14    8   14 1     
   15    9   10 1     
   16    9   19 1     
   17   10   11 2     
   18   10   20 1     
   19   11   12 1     
   20   11   14 1     
   21   12   13 2     
   22   12   21 1     
@<TRIPOS>SUBSTRUCTURE
      1 ****           1
@<TRIPOS>COMMENT
> <Gold.Version>
2022.2.0

> <Gold.Id.Protein>
1qkm|1qkm_protein|mol2

> <Gold.Protein.RotatedTorsions>
[  496  491  490  487 ] final  -67.19 input  -89.99 | X-H torsion

> <Gold.Protein.ActiveResidues>
 MET295  LEU298  THR299  LEU301  ALA302  GLU305  TRP335  MET336  LEU339  MET340 
 GLY342  LEU343  ARG346  PHE356  ILE373  ILE376  PHE377  LEU380  LYS471  GLY472 
 MET473  HIS475  LEU476  LEU477  ASN478  MET479  VAL484  VAL487 

> <Gold.Protein.RotatedAtoms>
   36.5546   34.7353   41.3816 H   0  0  0  0  0  0  0  0  0  0  0  0  # atno 496  bound_to 491 

> <Gold.Score>
     Score     S(PLP)   S(hbond)     S(cho)   S(metal)  DE(clash)   DE(tors)     intcor
     46.70     -46.86       0.00       0.00       0.00       0.00       0.08       0.00

> <Gold.PLP.Fitness>
46.7017

> <Gold.PLP.PLP>
-46.8590

> <Gold.PLP.part.hbond>
0.0000

> <Gold.PLP.part.metal>
0.0000

> <Gold.PLP.part.buried>
-2.2516

> <Gold.PLP.part.nonpolar>
-45.4145

> <Gold.PLP.part.repulsive>
0.1706

> <Gold.PLP.ligand.clash>
0.0000

> <Gold.PLP.ligand.torsion>
0.0787

> <Gold.PLP.Chemscore.Hbond>
0.0000

> <Gold.PLP.Chemscore.CHOScore>
0.0000

> <Gold.PLP.Chemscore.Metal>
0.0000

> <Gold.PLP.Chemscore.Internal.Correction>
0.0001

