#       Name:                EN300-17023_i001
#       Creating user name   aseyller
#       Creation time:       Fri Apr 21 16:43:39 2023


#       File generated by GOLD software.
#

@<TRIPOS>MOLECULE
EN300-17023_i001|benzaldehydes|mol2|73|dock17
    21    22     1
SMALL
USER_CHARGES


@<TRIPOS>ATOM
      1 Cl1         24.8111  36.9601  41.8015 Cl             1 <1>                0.0000
      2 C2          26.2585  36.9066  40.8445 C.ar           1 <1>                0.0000
      3 C3          26.2161  37.2718  39.5090 C.ar           1 <1>                0.0000
      4 C4          27.3622  37.2315  38.7435 C.ar           1 <1>                0.0000
      5 C5          28.5680  36.8216  39.3176 C.ar           1 <1>                0.0000
      6 C6          28.6040  36.4551  40.6651 C.ar           1 <1>                0.0000
      7 C7          27.4519  36.5043  41.4210 C.ar           1 <1>                0.0000
      8 C8          29.7986  36.7756  38.5037 C.2            1 <1>                0.0000
      9 C9          30.9293  36.0448  38.7962 C.2            1 <1>                0.0000
     10 C10         31.8472  36.2860  37.7730 C.2            1 <1>                0.0000
     11 C11         31.2402  37.1597  36.8889 C.2            1 <1>                0.0000
     12 C12         31.8138  37.6704  35.7057 C.2            1 <1>                0.0000
     13 O13         31.1597  38.3853  34.9730 O.2            1 <1>                0.0000
     14 O14         30.0014  37.4348  37.3510 O.3            1 <1>                0.0000
     15 H15         25.2833  37.5885  39.0663 H              1 <1>                0.0000
     16 H16         27.3277  37.5158  37.7021 H              1 <1>                0.0000
     17 H17         29.5332  36.1373  41.1148 H              1 <1>                0.0000
     18 H18         27.4785  36.2215  42.4630 H              1 <1>                0.0000
     19 H19         31.0775  35.4067  39.6548 H              1 <1>                0.0000
     20 H20         32.8406  35.8709  37.6881 H              1 <1>                0.0000
     21 H21         32.8345  37.4260  35.4512 H              1 <1>                0.0000
@<TRIPOS>BOND
    1    1    2 1     
    2    2    3 ar    
    3    2    7 ar    
    4    3    4 ar    
    5    3   15 1     
    6    4    5 ar    
    7    4   16 1     
    8    5    6 ar    
    9    5    8 1     
   10    6    7 ar    
   11    6   17 1     
   12    7   18 1     
   13    8    9 2     
   14    8   14 1     
   15    9   10 1     
   16    9   19 1     
   17   10   11 2     
   18   10   20 1     
   19   11   12 1     
   20   11   14 1     
   21   12   13 2     
   22   12   21 1     
@<TRIPOS>SUBSTRUCTURE
      1 ****           1
@<TRIPOS>COMMENT
> <Gold.Version>
2022.2.0

> <Gold.Id.Protein>
1qkm|1qkm_protein|mol2

> <Gold.Protein.RotatedTorsions>
[  496  491  490  487 ] final  -77.80 input  -89.99 | X-H torsion

> <Gold.Protein.ActiveResidues>
 MET295  LEU298  THR299  LEU301  ALA302  GLU305  TRP335  MET336  LEU339  MET340 
 GLY342  LEU343  ARG346  PHE356  ILE373  ILE376  PHE377  LEU380  LYS471  GLY472 
 MET473  HIS475  LEU476  LEU477  ASN478  MET479  VAL484  VAL487 

> <Gold.Protein.RotatedAtoms>
   36.6462   34.7144   41.2345 H   0  0  0  0  0  0  0  0  0  0  0  0  # atno 496  bound_to 491 

> <Gold.Score>
     Score     S(PLP)   S(hbond)     S(cho)   S(metal)  DE(clash)   DE(tors)     intcor
     44.26     -44.63       0.00       0.00       0.00       0.00       0.18       0.00

> <Gold.PLP.Fitness>
44.2615

> <Gold.PLP.PLP>
-44.6255

> <Gold.PLP.part.hbond>
0.0000

> <Gold.PLP.part.metal>
0.0000

> <Gold.PLP.part.buried>
1.5235

> <Gold.PLP.part.nonpolar>
-46.0238

> <Gold.PLP.part.repulsive>
0.0339

> <Gold.PLP.ligand.clash>
0.0000

> <Gold.PLP.ligand.torsion>
0.1820

> <Gold.PLP.Chemscore.Hbond>
0.0000

> <Gold.PLP.Chemscore.CHOScore>
0.0000

> <Gold.PLP.Chemscore.Metal>
0.0000

> <Gold.PLP.Chemscore.Internal.Correction>
0.0000

