#       Name:                EN300-17023_i001
#       Creating user name   aseyller
#       Creation time:       Fri Apr 21 16:43:36 2023


#       File generated by GOLD software.
#

@<TRIPOS>MOLECULE
EN300-17023_i001|benzaldehydes|mol2|73|dock11
    21    22     1
SMALL
USER_CHARGES


@<TRIPOS>ATOM
      1 Cl1         25.6614  37.1850  40.2705 Cl             1 <1>                0.0000
      2 C2          27.2058  36.9710  39.5070 C.ar           1 <1>                0.0000
      3 C3          28.2378  36.3583  40.1985 C.ar           1 <1>                0.0000
      4 C4          29.4668  36.1854  39.5976 C.ar           1 <1>                0.0000
      5 C5          29.6697  36.6292  38.2887 C.ar           1 <1>                0.0000
      6 C6          28.6245  37.2459  37.5968 C.ar           1 <1>                0.0000
      7 C7          27.3989  37.4086  38.2071 C.ar           1 <1>                0.0000
      8 C8          30.9830  36.4477  37.6397 C.2            1 <1>                0.0000
      9 C9          32.0905  35.8640  38.2148 C.2            1 <1>                0.0000
     10 C10         33.1098  35.8955  37.2620 C.2            1 <1>                0.0000
     11 C11         32.5845  36.5005  36.1343 C.2            1 <1>                0.0000
     12 C12         33.2732  36.7383  34.9265 C.2            1 <1>                0.0000
     13 O13         34.4344  36.4000  34.8127 O.2            1 <1>                0.0000
     14 O14         31.2967  36.8190  36.3874 O.3            1 <1>                0.0000
     15 H15         28.0797  36.0157  41.2104 H              1 <1>                0.0000
     16 H16         30.2710  35.7083  40.1381 H              1 <1>                0.0000
     17 H17         28.7751  37.5911  36.5845 H              1 <1>                0.0000
     18 H18         26.5899  37.8848  37.6731 H              1 <1>                0.0000
     19 H19         32.1574  35.4593  39.2138 H              1 <1>                0.0000
     20 H20         34.1153  35.5204  37.3821 H              1 <1>                0.0000
     21 H21         32.7683  37.2211  34.1029 H              1 <1>                0.0000
@<TRIPOS>BOND
    1    1    2 1     
    2    2    3 ar    
    3    2    7 ar    
    4    3    4 ar    
    5    3   15 1     
    6    4    5 ar    
    7    4   16 1     
    8    5    6 ar    
    9    5    8 1     
   10    6    7 ar    
   11    6   17 1     
   12    7   18 1     
   13    8    9 2     
   14    8   14 1     
   15    9   10 1     
   16    9   19 1     
   17   10   11 2     
   18   10   20 1     
   19   11   12 1     
   20   11   14 1     
   21   12   13 2     
   22   12   21 1     
@<TRIPOS>SUBSTRUCTURE
      1 ****           1
@<TRIPOS>COMMENT
> <Gold.Version>
2022.2.0

> <Gold.Id.Protein>
1qkm|1qkm_protein|mol2

> <Gold.Protein.RotatedTorsions>
[  496  491  490  487 ] final   40.31 input  -89.99 | X-H torsion

> <Gold.Protein.ActiveResidues>
 MET295  LEU298  THR299  LEU301  ALA302  GLU305  TRP335  MET336  LEU339  MET340 
 GLY342  LEU343  ARG346  PHE356  ILE373  ILE376  PHE377  LEU380  LYS471  GLY472 
 MET473  HIS475  LEU476  LEU477  ASN478  MET479  VAL484  VAL487 

> <Gold.Protein.RotatedAtoms>
   36.4057   33.5967   42.3792 H   0  0  0  0  0  0  0  0  0  0  0  0  # atno 496  bound_to 491 

> <Gold.Score>
     Score     S(PLP)   S(hbond)     S(cho)   S(metal)  DE(clash)   DE(tors)     intcor
     46.08     -46.08       0.00       0.00       0.00       0.00       0.00       0.00

> <Gold.PLP.Fitness>
46.0789

> <Gold.PLP.PLP>
-46.0791

> <Gold.PLP.part.hbond>
-0.0666

> <Gold.PLP.part.metal>
0.0000

> <Gold.PLP.part.buried>
-1.4689

> <Gold.PLP.part.nonpolar>
-45.9672

> <Gold.PLP.part.repulsive>
0.5040

> <Gold.PLP.ligand.clash>
0.0000

> <Gold.PLP.ligand.torsion>
0.0001

> <Gold.PLP.Chemscore.Hbond>
0.0000

> <Gold.PLP.Chemscore.CHOScore>
0.0000

> <Gold.PLP.Chemscore.Metal>
0.0000

> <Gold.PLP.Chemscore.Internal.Correction>
0.0000

