#       Name:                EN300-17023_i001
#       Creating user name   aseyller
#       Creation time:       Fri Apr 21 16:43:41 2023


#       File generated by GOLD software.
#

@<TRIPOS>MOLECULE
EN300-17023_i001|benzaldehydes|mol2|73|dock20
    21    22     1
SMALL
USER_CHARGES


@<TRIPOS>ATOM
      1 Cl1         33.6812  35.4872  36.6225 Cl             1 <1>                0.0000
      2 C2          32.2975  35.6958  37.6499 C.ar           1 <1>                0.0000
      3 C3          31.7373  34.5987  38.2833 C.ar           1 <1>                0.0000
      4 C4          30.6382  34.7577  39.1006 C.ar           1 <1>                0.0000
      5 C5          30.0900  36.0287  39.2895 C.ar           1 <1>                0.0000
      6 C6          30.6601  37.1310  38.6482 C.ar           1 <1>                0.0000
      7 C7          31.7619  36.9593  37.8372 C.ar           1 <1>                0.0000
      8 C8          28.9131  36.2060  40.1627 C.2            1 <1>                0.0000
      9 C9          28.9227  36.1813  41.5401 C.2            1 <1>                0.0000
     10 C10         27.6083  36.3886  41.9612 C.2            1 <1>                0.0000
     11 C11         26.8407  36.5330  40.8196 C.2            1 <1>                0.0000
     12 C12         25.4491  36.7605  40.7821 C.2            1 <1>                0.0000
     13 O13         24.8524  37.0448  41.8013 O.2            1 <1>                0.0000
     14 O14         27.6544  36.4242  39.7473 O.3            1 <1>                0.0000
     15 H15         32.1620  33.6166  38.1365 H              1 <1>                0.0000
     16 H16         30.2018  33.9014  39.5933 H              1 <1>                0.0000
     17 H17         30.2408  38.1162  38.7902 H              1 <1>                0.0000
     18 H18         32.2038  37.8108  37.3411 H              1 <1>                0.0000
     19 H19         29.7839  36.0296  42.1738 H              1 <1>                0.0000
     20 H20         27.2580  36.4281  42.9821 H              1 <1>                0.0000
     21 H21         24.9140  36.6821  39.8472 H              1 <1>                0.0000
@<TRIPOS>BOND
    1    1    2 1     
    2    2    3 ar    
    3    2    7 ar    
    4    3    4 ar    
    5    3   15 1     
    6    4    5 ar    
    7    4   16 1     
    8    5    6 ar    
    9    5    8 1     
   10    6    7 ar    
   11    6   17 1     
   12    7   18 1     
   13    8    9 2     
   14    8   14 1     
   15    9   10 1     
   16    9   19 1     
   17   10   11 2     
   18   10   20 1     
   19   11   12 1     
   20   11   14 1     
   21   12   13 2     
   22   12   21 1     
@<TRIPOS>SUBSTRUCTURE
      1 ****           1
@<TRIPOS>COMMENT
> <Gold.Version>
2022.2.0

> <Gold.Id.Protein>
1qkm|1qkm_protein|mol2

> <Gold.Protein.RotatedTorsions>
[  496  491  490  487 ] final  -86.53 input  -89.99 | X-H torsion

> <Gold.Protein.ActiveResidues>
 MET295  LEU298  THR299  LEU301  ALA302  GLU305  TRP335  MET336  LEU339  MET340 
 GLY342  LEU343  ARG346  PHE356  ILE373  ILE376  PHE377  LEU380  LYS471  GLY472 
 MET473  HIS475  LEU476  LEU477  ASN478  MET479  VAL484  VAL487 

> <Gold.Protein.RotatedAtoms>
   36.7254   34.6745   41.1215 H   0  0  0  0  0  0  0  0  0  0  0  0  # atno 496  bound_to 491 

> <Gold.Score>
     Score     S(PLP)   S(hbond)     S(cho)   S(metal)  DE(clash)   DE(tors)     intcor
     47.30     -48.92       0.42       0.00       0.00       0.00       1.43       0.00

> <Gold.PLP.Fitness>
47.3005

> <Gold.PLP.PLP>
-48.9163

> <Gold.PLP.part.hbond>
-0.6897

> <Gold.PLP.part.metal>
0.0000

> <Gold.PLP.part.buried>
-0.5430

> <Gold.PLP.part.nonpolar>
-47.9238

> <Gold.PLP.part.repulsive>
0.2897

> <Gold.PLP.ligand.clash>
0.0000

> <Gold.PLP.ligand.torsion>
1.4319

> <Gold.PLP.Chemscore.Hbond>
0.4160

> <Gold.PLP.Chemscore.CHOScore>
0.0000

> <Gold.PLP.Chemscore.Metal>
0.0000

> <Gold.Chemscore.Hbonds>
donor molecule, donor type, donor heavy atom, donor atom, acceptor molecule, acceptor atom, score
      P1  H  1258  1270       L1    13  0.42

> <Gold.PLP.Chemscore.Internal.Correction>
0.0000

