#       Name:                EN300-17023_i001
#       Creating user name   aseyller
#       Creation time:       Fri Apr 21 16:43:34 2023


#       File generated by GOLD software.
#

@<TRIPOS>MOLECULE
EN300-17023_i001|benzaldehydes|mol2|73|dock7
    21    22     1
SMALL
USER_CHARGES


@<TRIPOS>ATOM
      1 Cl1         32.8328  37.4371  35.2170 Cl             1 <1>                0.0000
      2 C2          31.3808  37.3865  36.1670 C.ar           1 <1>                0.0000
      3 C3          30.2614  38.0899  35.7537 C.ar           1 <1>                0.0000
      4 C4          29.1050  38.0538  36.5039 C.ar           1 <1>                0.0000
      5 C5          29.0638  37.3054  37.6827 C.ar           1 <1>                0.0000
      6 C6          30.1960  36.5978  38.0936 C.ar           1 <1>                0.0000
      7 C7          31.3448  36.6383  37.3321 C.ar           1 <1>                0.0000
      8 C8          27.8292  37.2627  38.4908 C.2            1 <1>                0.0000
      9 C9          26.6494  37.9080  38.1915 C.2            1 <1>                0.0000
     10 C10         25.7469  37.6023  39.2112 C.2            1 <1>                0.0000
     11 C11         26.4122  36.7774  40.1001 C.2            1 <1>                0.0000
     12 C12         25.8721  36.2286  41.2820 C.2            1 <1>                0.0000
     13 O13         24.9005  36.7409  41.8009 O.2            1 <1>                0.0000
     14 O14         27.6663  36.5835  39.6383 O.3            1 <1>                0.0000
     15 H15         30.2945  38.6682  34.8422 H              1 <1>                0.0000
     16 H16         28.2331  38.6033  36.1809 H              1 <1>                0.0000
     17 H17         30.1704  36.0173  39.0041 H              1 <1>                0.0000
     18 H18         32.2207  36.0914  37.6485 H              1 <1>                0.0000
     19 H19         26.4592  38.5325  37.3312 H              1 <1>                0.0000
     20 H20         24.7256  37.9445  39.2911 H              1 <1>                0.0000
     21 H21         26.3223  35.3528  41.7256 H              1 <1>                0.0000
@<TRIPOS>BOND
    1    1    2 1     
    2    2    3 ar    
    3    2    7 ar    
    4    3    4 ar    
    5    3   15 1     
    6    4    5 ar    
    7    4   16 1     
    8    5    6 ar    
    9    5    8 1     
   10    6    7 ar    
   11    6   17 1     
   12    7   18 1     
   13    8    9 2     
   14    8   14 1     
   15    9   10 1     
   16    9   19 1     
   17   10   11 2     
   18   10   20 1     
   19   11   12 1     
   20   11   14 1     
   21   12   13 2     
   22   12   21 1     
@<TRIPOS>SUBSTRUCTURE
      1 ****           1
@<TRIPOS>COMMENT
> <Gold.Version>
2022.2.0

> <Gold.Id.Protein>
1qkm|1qkm_protein|mol2

> <Gold.Protein.RotatedTorsions>
[  496  491  490  487 ] final  171.48 input  -89.99 | X-H torsion

> <Gold.Protein.ActiveResidues>
 MET295  LEU298  THR299  LEU301  ALA302  GLU305  TRP335  MET336  LEU339  MET340 
 GLY342  LEU343  ARG346  PHE356  ILE373  ILE376  PHE377  LEU380  LYS471  GLY472 
 MET473  HIS475  LEU476  LEU477  ASN478  MET479  VAL484  VAL487 

> <Gold.Protein.RotatedAtoms>
   37.3167   33.3450   40.9449 H   0  0  0  0  0  0  0  0  0  0  0  0  # atno 496  bound_to 491 

> <Gold.Score>
     Score     S(PLP)   S(hbond)     S(cho)   S(metal)  DE(clash)   DE(tors)     intcor
     46.54     -45.01       0.58       0.00       0.00       0.00       0.10       0.00

> <Gold.PLP.Fitness>
46.5415

> <Gold.PLP.PLP>
-45.0052

> <Gold.PLP.part.hbond>
-1.0000

> <Gold.PLP.part.metal>
0.0000

> <Gold.PLP.part.buried>
-2.1035

> <Gold.PLP.part.nonpolar>
-42.2008

> <Gold.PLP.part.repulsive>
0.3004

> <Gold.PLP.ligand.clash>
0.0000

> <Gold.PLP.ligand.torsion>
0.0959

> <Gold.PLP.Chemscore.Hbond>
0.5760

> <Gold.PLP.Chemscore.CHOScore>
0.0000

> <Gold.PLP.Chemscore.Metal>
0.0000

> <Gold.Chemscore.Hbonds>
donor molecule, donor type, donor heavy atom, donor atom, acceptor molecule, acceptor atom, score
      P1  H  1258  1270       L1    13  0.58

> <Gold.PLP.Chemscore.Internal.Correction>
0.0001

