#       Name:                EN300-17023_i001
#       Creating user name   aseyller
#       Creation time:       Fri Apr 21 16:43:38 2023


#       File generated by GOLD software.
#

@<TRIPOS>MOLECULE
EN300-17023_i001|benzaldehydes|mol2|73|dock14
    21    22     1
SMALL
USER_CHARGES


@<TRIPOS>ATOM
      1 Cl1         24.9186  37.0907  41.7945 Cl             1 <1>                0.0000
      2 C2          26.3690  36.8312  40.8766 C.ar           1 <1>                0.0000
      3 C3          27.5279  36.4262  41.5183 C.ar           1 <1>                0.0000
      4 C4          28.6833  36.2184  40.7949 C.ar           1 <1>                0.0000
      5 C5          28.6833  36.4167  39.4122 C.ar           1 <1>                0.0000
      6 C6          27.5111  36.8247  38.7711 C.ar           1 <1>                0.0000
      7 C7          26.3611  37.0245  39.5052 C.ar           1 <1>                0.0000
      8 C8          29.9168  36.1966  38.6318 C.2            1 <1>                0.0000
      9 C9          31.0308  35.5114  39.0647 C.2            1 <1>                0.0000
     10 C10         31.9585  35.5404  38.0225 C.2            1 <1>                0.0000
     11 C11         31.3739  36.2459  36.9862 C.2            1 <1>                0.0000
     12 C12         31.9637  36.5166  35.7338 C.2            1 <1>                0.0000
     13 O13         33.0753  36.0962  35.4823 O.2            1 <1>                0.0000
     14 O14         30.1387  36.6258  37.3784 O.3            1 <1>                0.0000
     15 H15         27.5266  36.2732  42.5874 H              1 <1>                0.0000
     16 H16         29.5864  35.9033  41.2965 H              1 <1>                0.0000
     17 H17         27.5047  36.9797  37.7022 H              1 <1>                0.0000
     18 H18         25.4541  37.3395  39.0107 H              1 <1>                0.0000
     19 H19         31.1616  35.0414  40.0282 H              1 <1>                0.0000
     20 H20         32.9437  35.0978  38.0249 H              1 <1>                0.0000
     21 H21         31.4269  37.0976  34.9983 H              1 <1>                0.0000
@<TRIPOS>BOND
    1    1    2 1     
    2    2    3 ar    
    3    2    7 ar    
    4    3    4 ar    
    5    3   15 1     
    6    4    5 ar    
    7    4   16 1     
    8    5    6 ar    
    9    5    8 1     
   10    6    7 ar    
   11    6   17 1     
   12    7   18 1     
   13    8    9 2     
   14    8   14 1     
   15    9   10 1     
   16    9   19 1     
   17   10   11 2     
   18   10   20 1     
   19   11   12 1     
   20   11   14 1     
   21   12   13 2     
   22   12   21 1     
@<TRIPOS>SUBSTRUCTURE
      1 ****           1
@<TRIPOS>COMMENT
> <Gold.Version>
2022.2.0

> <Gold.Id.Protein>
1qkm|1qkm_protein|mol2

> <Gold.Protein.RotatedTorsions>
[  496  491  490  487 ] final  -70.27 input  -89.99 | X-H torsion

> <Gold.Protein.ActiveResidues>
 MET295  LEU298  THR299  LEU301  ALA302  GLU305  TRP335  MET336  LEU339  MET340 
 GLY342  LEU343  ARG346  PHE356  ILE373  ILE376  PHE377  LEU380  LYS471  GLY472 
 MET473  HIS475  LEU476  LEU477  ASN478  MET479  VAL484  VAL487 

> <Gold.Protein.RotatedAtoms>
   36.5805   34.7324   41.3380 H   0  0  0  0  0  0  0  0  0  0  0  0  # atno 496  bound_to 491 

> <Gold.Score>
     Score     S(PLP)   S(hbond)     S(cho)   S(metal)  DE(clash)   DE(tors)     intcor
     45.77     -45.99       0.00       0.00       0.00       0.00       0.11       0.00

> <Gold.PLP.Fitness>
45.7674

> <Gold.PLP.PLP>
-45.9945

> <Gold.PLP.part.hbond>
0.0000

> <Gold.PLP.part.metal>
0.0000

> <Gold.PLP.part.buried>
2.1978

> <Gold.PLP.part.nonpolar>
-48.1837

> <Gold.PLP.part.repulsive>
0.0967

> <Gold.PLP.ligand.clash>
0.0000

> <Gold.PLP.ligand.torsion>
0.1136

> <Gold.PLP.Chemscore.Hbond>
0.0000

> <Gold.PLP.Chemscore.CHOScore>
0.0000

> <Gold.PLP.Chemscore.Metal>
0.0000

> <Gold.PLP.Chemscore.Internal.Correction>
0.0000

