#       Name:                EN300-17023_i001
#       Creating user name   aseyller
#       Creation time:       Fri Apr 21 16:43:35 2023


#       File generated by GOLD software.
#

@<TRIPOS>MOLECULE
EN300-17023_i001|benzaldehydes|mol2|73|dock9
    21    22     1
SMALL
USER_CHARGES


@<TRIPOS>ATOM
      1 Cl1         33.7025  35.4449  37.0833 Cl             1 <1>                0.0000
      2 C2          32.1007  35.6924  37.7052 C.ar           1 <1>                0.0000
      3 C3          31.5043  36.9380  37.5983 C.ar           1 <1>                0.0000
      4 C4          30.2323  37.1411  38.0902 C.ar           1 <1>                0.0000
      5 C5          29.5448  36.0872  38.6971 C.ar           1 <1>                0.0000
      6 C6          30.1518  34.8334  38.8013 C.ar           1 <1>                0.0000
      7 C7          31.4224  34.6420  38.3011 C.ar           1 <1>                0.0000
      8 C8          28.1830  36.2978  39.2264 C.2            1 <1>                0.0000
      9 C9          27.0297  36.3636  38.4757 C.2            1 <1>                0.0000
     10 C10         25.9748  36.5718  39.3654 C.2            1 <1>                0.0000
     11 C11         26.5257  36.6257  40.6331 C.2            1 <1>                0.0000
     12 C12         25.8153  36.8226  41.8358 C.2            1 <1>                0.0000
     13 O13         24.6067  36.7017  41.8542 O.2            1 <1>                0.0000
     14 O14         27.8602  36.4516  40.5212 O.3            1 <1>                0.0000
     15 H15         32.0368  37.7519  37.1289 H              1 <1>                0.0000
     16 H16         29.7686  38.1129  38.0070 H              1 <1>                0.0000
     17 H17         29.6254  34.0145  39.2694 H              1 <1>                0.0000
     18 H18         31.8926  33.6730  38.3807 H              1 <1>                0.0000
     19 H19         26.9560  36.2721  37.4021 H              1 <1>                0.0000
     20 H20         24.9296  36.6721  39.1127 H              1 <1>                0.0000
     21 H21         26.3459  37.0809  42.7403 H              1 <1>                0.0000
@<TRIPOS>BOND
    1    1    2 1     
    2    2    3 ar    
    3    2    7 ar    
    4    3    4 ar    
    5    3   15 1     
    6    4    5 ar    
    7    4   16 1     
    8    5    6 ar    
    9    5    8 1     
   10    6    7 ar    
   11    6   17 1     
   12    7   18 1     
   13    8    9 2     
   14    8   14 1     
   15    9   10 1     
   16    9   19 1     
   17   10   11 2     
   18   10   20 1     
   19   11   12 1     
   20   11   14 1     
   21   12   13 2     
   22   12   21 1     
@<TRIPOS>SUBSTRUCTURE
      1 ****           1
@<TRIPOS>COMMENT
> <Gold.Version>
2022.2.0

> <Gold.Id.Protein>
1qkm|1qkm_protein|mol2

> <Gold.Protein.RotatedTorsions>
[  496  491  490  487 ] final   80.45 input  -89.99 | X-H torsion

> <Gold.Protein.ActiveResidues>
 MET295  LEU298  THR299  LEU301  ALA302  GLU305  TRP335  MET336  LEU339  MET340 
 GLY342  LEU343  ARG346  PHE356  ILE373  ILE376  PHE377  LEU380  LYS471  GLY472 
 MET473  HIS475  LEU476  LEU477  ASN478  MET479  VAL484  VAL487 

> <Gold.Protein.RotatedAtoms>
   36.7320   33.0957   42.1312 H   0  0  0  0  0  0  0  0  0  0  0  0  # atno 496  bound_to 491 

> <Gold.Score>
     Score     S(PLP)   S(hbond)     S(cho)   S(metal)  DE(clash)   DE(tors)     intcor
     46.27     -47.21       0.67       0.00       0.00       0.00       1.47       0.00

> <Gold.PLP.Fitness>
46.2740

> <Gold.PLP.PLP>
-47.2062

> <Gold.PLP.part.hbond>
-0.5877

> <Gold.PLP.part.metal>
0.0000

> <Gold.PLP.part.buried>
-1.6689

> <Gold.PLP.part.nonpolar>
-47.1354

> <Gold.PLP.part.repulsive>
0.9578

> <Gold.PLP.ligand.clash>
0.0000

> <Gold.PLP.ligand.torsion>
1.4741

> <Gold.PLP.Chemscore.Hbond>
0.6720

> <Gold.PLP.Chemscore.CHOScore>
0.0000

> <Gold.PLP.Chemscore.Metal>
0.0000

> <Gold.Chemscore.Hbonds>
donor molecule, donor type, donor heavy atom, donor atom, acceptor molecule, acceptor atom, score
      P1  H  1258  1270       L1    13  0.67

> <Gold.PLP.Chemscore.Internal.Correction>
0.0001

