#       Name:                EN300-17023_i001
#       Creating user name   aseyller
#       Creation time:       Fri Apr 21 16:43:39 2023


#       File generated by GOLD software.
#

@<TRIPOS>MOLECULE
EN300-17023_i001|benzaldehydes|mol2|73|dock16
    21    22     1
SMALL
USER_CHARGES


@<TRIPOS>ATOM
      1 Cl1         34.2428  36.4005  35.5674 Cl             1 <1>                0.0000
      2 C2          32.8768  36.3961  36.6387 C.ar           1 <1>                0.0000
      3 C3          32.7871  35.4409  37.6378 C.ar           1 <1>                0.0000
      4 C4          31.7046  35.4320  38.4919 C.ar           1 <1>                0.0000
      5 C5          30.6974  36.3892  38.3482 C.ar           1 <1>                0.0000
      6 C6          30.7942  37.3500  37.3388 C.ar           1 <1>                0.0000
      7 C7          31.8841  37.3511  36.4942 C.ar           1 <1>                0.0000
      8 C8          29.5355  36.3851  39.2587 C.2            1 <1>                0.0000
      9 C9          29.5104  35.8500  40.5279 C.2            1 <1>                0.0000
     10 C10         28.2267  36.0596  41.0340 C.2            1 <1>                0.0000
     11 C11         27.5116  36.7183  40.0500 C.2            1 <1>                0.0000
     12 C12         26.1645  37.1270  40.1399 C.2            1 <1>                0.0000
     13 O13         25.5652  37.4681  39.1399 O.2            1 <1>                0.0000
     14 O14         28.3274  36.9077  38.9906 O.3            1 <1>                0.0000
     15 H15         33.5664  34.7014  37.7479 H              1 <1>                0.0000
     16 H16         31.6354  34.6862  39.2701 H              1 <1>                0.0000
     17 H17         30.0187  38.0928  37.2225 H              1 <1>                0.0000
     18 H18         31.9603  38.0936  35.7137 H              1 <1>                0.0000
     19 H19         30.3287  35.3606  41.0350 H              1 <1>                0.0000
     20 H20         27.8617  35.7638  42.0064 H              1 <1>                0.0000
     21 H21         25.6659  37.1366  41.0979 H              1 <1>                0.0000
@<TRIPOS>BOND
    1    1    2 1     
    2    2    3 ar    
    3    2    7 ar    
    4    3    4 ar    
    5    3   15 1     
    6    4    5 ar    
    7    4   16 1     
    8    5    6 ar    
    9    5    8 1     
   10    6    7 ar    
   11    6   17 1     
   12    7   18 1     
   13    8    9 2     
   14    8   14 1     
   15    9   10 1     
   16    9   19 1     
   17   10   11 2     
   18   10   20 1     
   19   11   12 1     
   20   11   14 1     
   21   12   13 2     
   22   12   21 1     
@<TRIPOS>SUBSTRUCTURE
      1 ****           1
@<TRIPOS>COMMENT
> <Gold.Version>
2022.2.0

> <Gold.Id.Protein>
1qkm|1qkm_protein|mol2

> <Gold.Protein.RotatedTorsions>
[  496  491  490  487 ] final   75.94 input  -89.99 | X-H torsion

> <Gold.Protein.ActiveResidues>
 MET295  LEU298  THR299  LEU301  ALA302  GLU305  TRP335  MET336  LEU339  MET340 
 GLY342  LEU343  ARG346  PHE356  ILE373  ILE376  PHE377  LEU380  LYS471  GLY472 
 MET473  HIS475  LEU476  LEU477  ASN478  MET479  VAL484  VAL487 

> <Gold.Protein.RotatedAtoms>
   36.6907   33.1378   42.1763 H   0  0  0  0  0  0  0  0  0  0  0  0  # atno 496  bound_to 491 

> <Gold.Score>
     Score     S(PLP)   S(hbond)     S(cho)   S(metal)  DE(clash)   DE(tors)     intcor
     43.94     -44.52       0.00       0.00       0.00       0.00       0.29       0.00

> <Gold.PLP.Fitness>
43.9373

> <Gold.PLP.PLP>
-44.5222

> <Gold.PLP.part.hbond>
0.0000

> <Gold.PLP.part.metal>
0.0000

> <Gold.PLP.part.buried>
-1.6225

> <Gold.PLP.part.nonpolar>
-42.8792

> <Gold.PLP.part.repulsive>
0.0868

> <Gold.PLP.ligand.clash>
0.0000

> <Gold.PLP.ligand.torsion>
0.2925

> <Gold.PLP.Chemscore.Hbond>
0.0000

> <Gold.PLP.Chemscore.CHOScore>
0.0000

> <Gold.PLP.Chemscore.Metal>
0.0000

> <Gold.PLP.Chemscore.Internal.Correction>
0.0000

