#       Name:                EN300-1087079_i001
#       Creating user name   fsindt
#       Creation time:       Wed Mar  1 22:25:11 2023


#       File generated by GOLD software.
#

@<TRIPOS>MOLECULE
EN300-1087079_i001|acide_1|mol2|10295|dock13
    27    27     1
SMALL
USER_CHARGES


@<TRIPOS>ATOM
      1 C1          -3.4173 -10.1461  10.0326 C.3            1 <1>                0.0000
      2 C2          -2.4621 -10.7484  11.0650 C.3            1 <1>                0.0000
      3 C3          -2.0932 -12.1735  10.6480 C.3            1 <1>                0.0000
      4 C4          -1.1624 -12.8302  11.7014 C.3            1 <1>                0.0000
      5 C5          -0.3993 -13.8665  10.8392 C.3            1 <1>                0.0000
      6 N6          -0.1914 -13.1981   9.5417 N.am           1 <1>                0.0000
      7 C7          -1.2204 -12.1612   9.3753 C.3            1 <1>                0.0000
      8 C8          -0.5675 -10.8125   9.2144 C.2            1 <1>                0.0000
      9 O9           0.3605 -10.4942   9.9381 O.co2          1 <1>                0.0000
     10 O10         -0.9676 -10.0397   8.3604 O.co2          1 <1>               -1.0000
     11 C11          0.7814 -13.4889   8.6553 C.2            1 <1>                0.0000
     12 O12          1.5801 -14.3686   8.8985 O.2            1 <1>                0.0000
     13 C13          0.8766 -12.7211   7.3622 C.3            1 <1>                0.0000
     14 H14         -3.6802  -9.1309  10.3297 H              1 <1>                0.0000
     15 H15         -2.9315 -10.1249   9.0571 H              1 <1>                0.0000
     16 H16         -4.3206 -10.7534   9.9756 H              1 <1>                0.0000
     17 H17         -1.5589 -10.1411  11.1220 H              1 <1>                0.0000
     18 H18         -2.9479 -10.7696  12.0406 H              1 <1>                0.0000
     19 H19         -2.9901 -12.7743  10.4979 H              1 <1>                0.0000
     20 H20         -0.4777 -12.0975  12.1286 H              1 <1>                0.0000
     21 H21         -1.7422 -13.3226  12.4821 H              1 <1>                0.0000
     22 H22          0.5588 -14.1101  11.2983 H              1 <1>                0.0000
     23 H23         -0.9990 -14.7675  10.7099 H              1 <1>                0.0000
     24 H24         -1.8341 -12.3848   8.5027 H              1 <1>                0.0000
     25 H25          0.0805 -11.9775   7.3216 H              1 <1>                0.0000
     26 H26          1.8437 -12.2213   7.3067 H              1 <1>                0.0000
     27 H27          0.7743 -13.4089   6.5228 H              1 <1>                0.0000
@<TRIPOS>BOND
    1    1    2 1     
    2    1   14 1     
    3    1   15 1     
    4    1   16 1     
    5    2    3 1     
    6    2   17 1     
    7    2   18 1     
    8    3    4 1     
    9    3    7 1     
   10    3   19 1     
   11    4    5 1     
   12    4   20 1     
   13    4   21 1     
   14    5    6 1     
   15    5   22 1     
   16    5   23 1     
   17    6    7 1     
   18    6   11 am    
   19    7    8 1     
   20    7   24 1     
   21    8    9 ar    
   22    8   10 ar    
   23   11   12 2     
   24   11   13 1     
   25   13   25 1     
   26   13   26 1     
   27   13   27 1     
@<TRIPOS>SUBSTRUCTURE
      1 ****           1
@<TRIPOS>COMMENT
> <Gold.Version>
2022.2.0

> <Gold.Id.Protein>
3pbl|protein|mol2

> <Gold.Protein.RotatedTorsions>
[ 1303 1298 1297 1294 ] final -133.87 input  179.99 | X-H torsion
[ 2461 2456 2455 2452 ] final -116.60 input   30.03 | X-H torsion
[ 2515 2510 2509 2506 ] final  101.79 input  -89.99 | X-H torsion
[ 3721 3712 3711 3710 ] final   36.71 input -179.91 | X-H torsion
[ 3841 3832 3831 3830 ] final -136.38 input -179.91 | X-H torsion
[ 3767 3762 3761 3758 ] final   70.63 input  -89.99 | X-H torsion
[ 2472 2467 2466 2463 ] final   78.62 input  -89.97 | X-H torsion

> <Gold.Protein.ActiveResidues>
 VAL82   VAL86   LEU89   PHE106  VAL107  ASP110  VAL111  MET112  CYS114  THR115 
 CYS181  SER182  ILE183  PHE188  VAL189  ILE190  SER192  SER193  SER196  TRP342 
 PHE345  PHE346  HIS349  VAL350  TYR365  THR369  GLY372  TYR373 

> <Gold.Protein.RotatedAtoms>
    4.4175   -8.4896    4.2274 H   0  0  0  0  0  0  0  0  0  0  0  0  # atno 1303 bound_to 1298
    0.5398   -9.1507    8.0170 H   0  0  0  0  0  0  0  0  0  0  0  0  # atno 2461 bound_to 2456
   -4.9380   -4.8729    7.7166 H   0  0  0  0  0  0  0  0  0  0  0  0  # atno 2472 bound_to 2467
    2.0297   -7.8904    5.9532 H   0  0  0  0  0  0  0  0  0  0  0  0  # atno 2515 bound_to 2510
   -2.4977  -18.0219   13.7008 H   0  0  0  0  0  0  0  0  0  0  0  0  # atno 3721 bound_to 3712
   -4.4257  -23.3200   10.2862 H   0  0  0  0  0  0  0  0  0  0  0  0  # atno 3767 bound_to 3762
    2.4477  -19.6597    8.3778 H   0  0  0  0  0  0  0  0  0  0  0  0  # atno 3841 bound_to 3832
    4.6075   -9.9529    4.9266 LP  0  0  0  0  0  0  0  0  0  0  0  0  # atno 4297 bound_to 1298
    3.3371   -9.6792    3.9377 LP  0  0  0  0  0  0  0  0  0  0  0  0  # atno 4298 bound_to 1298
    2.1035   -8.6862    8.0988 LP  0  0  0  0  0  0  0  0  0  0  0  0  # atno 4299 bound_to 2456
    1.0943   -7.9714    7.0324 LP  0  0  0  0  0  0  0  0  0  0  0  0  # atno 4300 bound_to 2456
    2.6569   -7.8515    4.4463 LP  0  0  0  0  0  0  0  0  0  0  0  0  # atno 4301 bound_to 2510
    2.6103   -9.2575    5.2754 LP  0  0  0  0  0  0  0  0  0  0  0  0  # atno 4302 bound_to 2510
   -3.1779  -17.0883   14.8159 LP  0  0  0  0  0  0  0  0  0  0  0  0  # atno 4306 bound_to 3712
   -3.4662  -16.8314   13.2293 LP  0  0  0  0  0  0  0  0  0  0  0  0  # atno 4307 bound_to 3712
    2.9363  -21.0517    9.0099 LP  0  0  0  0  0  0  0  0  0  0  0  0  # atno 4314 bound_to 3832
    1.4656  -20.4437    9.3762 LP  0  0  0  0  0  0  0  0  0  0  0  0  # atno 4315 bound_to 3832
   -5.5007  -22.1505   10.6648 LP  0  0  0  0  0  0  0  0  0  0  0  0  # atno 4318 bound_to 3762
   -4.2008  -22.4048   11.6199 LP  0  0  0  0  0  0  0  0  0  0  0  0  # atno 4319 bound_to 3762
   -3.6417   -5.0795    8.6879 LP  0  0  0  0  0  0  0  0  0  0  0  0  # atno 4320 bound_to 2467
   -5.1374   -5.4411    9.2345 LP  0  0  0  0  0  0  0  0  0  0  0  0  # atno 4321 bound_to 2467

> <Gold.Score>
     Score     S(PLP)   S(hbond)     S(cho)   S(metal)  DE(clash)   DE(tors)     intcor
     41.01     -38.77       1.00       0.00       0.00       0.00       0.39       0.02

> <Gold.PLP.Fitness>
41.0102

> <Gold.PLP.PLP>
-38.7711

> <Gold.PLP.part.hbond>
-2.0000

> <Gold.PLP.part.metal>
0.0000

> <Gold.PLP.part.buried>
0.3016

> <Gold.PLP.part.nonpolar>
-37.5022

> <Gold.PLP.part.repulsive>
0.2204

> <Gold.PLP.ligand.clash>
0.0000

> <Gold.PLP.ligand.torsion>
0.3884

> <Gold.PLP.Chemscore.Hbond>
1.0000

> <Gold.PLP.Chemscore.CHOScore>
0.0000

> <Gold.PLP.Chemscore.Metal>
0.0000

> <Gold.Chemscore.Hbonds>
donor molecule, donor type, donor heavy atom, donor atom, acceptor molecule, acceptor atom, score
      P1  H  2456  2461       L1    10  1.00

> <Gold.PLP.Chemscore.Internal.Correction>
0.0159

