#       Name:                EN300-1087079_i001
#       Creating user name   fsindt
#       Creation time:       Wed Mar  1 22:25:14 2023


#       File generated by GOLD software.
#

@<TRIPOS>MOLECULE
EN300-1087079_i001|acide_1|mol2|10295|dock19
    27    27     1
SMALL
USER_CHARGES


@<TRIPOS>ATOM
      1 C1           1.9591 -16.9471  14.2198 C.3            1 <1>                0.0000
      2 C2           1.0247 -17.9689  14.8707 C.3            1 <1>                0.0000
      3 C3           1.6097 -19.3730  14.7049 C.3            1 <1>                0.0000
      4 C4           1.4025 -19.8864  13.2555 C.3            1 <1>                0.0000
      5 C5           1.3996 -21.4211  13.4667 C.3            1 <1>                0.0000
      6 N6           0.7037 -21.6241  14.7504 N.am           1 <1>                0.0000
      7 C7           0.8217 -20.3960  15.5500 C.3            1 <1>                0.0000
      8 C8          -0.5494 -19.8546  15.8630 C.2            1 <1>                0.0000
      9 O9          -0.9238 -19.7751  17.0205 O.co2          1 <1>                0.0000
     10 O10         -1.2843 -19.4961  14.9586 O.co2          1 <1>               -1.0000
     11 C11          0.0646 -22.7490  15.1281 C.2            1 <1>                0.0000
     12 O12         -0.4761 -22.8043  16.2122 O.2            1 <1>                0.0000
     13 C13          0.0220 -23.9381  14.2034 C.3            1 <1>                0.0000
     14 H14          1.5424 -15.9469  14.3379 H              1 <1>                0.0000
     15 H15          2.9370 -16.9922  14.6990 H              1 <1>                0.0000
     16 H16          2.0635 -17.1743  13.1589 H              1 <1>                0.0000
     17 H17          0.9202 -17.7417  15.9315 H              1 <1>                0.0000
     18 H18          0.0467 -17.9239  14.3914 H              1 <1>                0.0000
     19 H19          2.6669 -19.3825  14.9699 H              1 <1>                0.0000
     20 H20          0.4485 -19.5457  12.8530 H              1 <1>                0.0000
     21 H21          2.2276 -19.5822  12.6115 H              1 <1>                0.0000
     22 H22          0.8579 -21.9141  12.6594 H              1 <1>                0.0000
     23 H23          2.4207 -21.7979  13.5249 H              1 <1>                0.0000
     24 H24          1.3597 -20.6058  16.4745 H              1 <1>                0.0000
     25 H25          0.5577 -23.7026  13.2836 H              1 <1>                0.0000
     26 H26          0.4924 -24.7931  14.6889 H              1 <1>                0.0000
     27 H27         -1.0149 -24.1787  13.9684 H              1 <1>                0.0000
@<TRIPOS>BOND
    1    1    2 1     
    2    1   14 1     
    3    1   15 1     
    4    1   16 1     
    5    2    3 1     
    6    2   17 1     
    7    2   18 1     
    8    3    4 1     
    9    3    7 1     
   10    3   19 1     
   11    4    5 1     
   12    4   20 1     
   13    4   21 1     
   14    5    6 1     
   15    5   22 1     
   16    5   23 1     
   17    6    7 1     
   18    6   11 am    
   19    7    8 1     
   20    7   24 1     
   21    8    9 ar    
   22    8   10 ar    
   23   11   12 2     
   24   11   13 1     
   25   13   25 1     
   26   13   26 1     
   27   13   27 1     
@<TRIPOS>SUBSTRUCTURE
      1 ****           1
@<TRIPOS>COMMENT
> <Gold.Version>
2022.2.0

> <Gold.Id.Protein>
3pbl|protein|mol2

> <Gold.Protein.RotatedTorsions>
[ 1303 1298 1297 1294 ] final   -8.68 input  179.99 | X-H torsion
[ 2461 2456 2455 2452 ] final -168.48 input   30.03 | X-H torsion
[ 2515 2510 2509 2506 ] final  101.14 input  -89.99 | X-H torsion
[ 3721 3712 3711 3710 ] final   12.35 input -179.91 | X-H torsion
[ 3841 3832 3831 3830 ] final  176.18 input -179.91 | X-H torsion
[ 3767 3762 3761 3758 ] final   -2.53 input  -89.99 | X-H torsion
[ 2472 2467 2466 2463 ] final  130.09 input  -89.97 | X-H torsion

> <Gold.Protein.ActiveResidues>
 VAL82   VAL86   LEU89   PHE106  VAL107  ASP110  VAL111  MET112  CYS114  THR115 
 CYS181  SER182  ILE183  PHE188  VAL189  ILE190  SER192  SER193  SER196  TRP342 
 PHE345  PHE346  HIS349  VAL350  TYR365  THR369  GLY372  TYR373 

> <Gold.Protein.RotatedAtoms>
    3.3502   -9.7541    3.9764 H   0  0  0  0  0  0  0  0  0  0  0  0  # atno 1303 bound_to 1298
    1.2685   -9.2657    8.3863 H   0  0  0  0  0  0  0  0  0  0  0  0  # atno 2461 bound_to 2456
   -5.4756   -5.1337    8.2762 H   0  0  0  0  0  0  0  0  0  0  0  0  # atno 2472 bound_to 2467
    2.0300   -7.8812    5.9478 H   0  0  0  0  0  0  0  0  0  0  0  0  # atno 2515 bound_to 2510
   -2.4708  -18.0123   14.0653 H   0  0  0  0  0  0  0  0  0  0  0  0  # atno 3721 bound_to 3712
   -5.3453  -22.6855   10.1637 H   0  0  0  0  0  0  0  0  0  0  0  0  # atno 3767 bound_to 3762
    2.9894  -20.0940    8.4312 H   0  0  0  0  0  0  0  0  0  0  0  0  # atno 3841 bound_to 3832
    4.3503   -8.4788    4.1759 LP  0  0  0  0  0  0  0  0  0  0  0  0  # atno 4297 bound_to 1298
    4.6620   -9.8882    4.9394 LP  0  0  0  0  0  0  0  0  0  0  0  0  # atno 4298 bound_to 1298
    2.0271   -8.1187    7.5052 LP  0  0  0  0  0  0  0  0  0  0  0  0  # atno 4299 bound_to 2456
    0.4422   -8.4239    7.2568 LP  0  0  0  0  0  0  0  0  0  0  0  0  # atno 4300 bound_to 2456
    2.6607   -7.8604    4.4419 LP  0  0  0  0  0  0  0  0  0  0  0  0  # atno 4301 bound_to 2510
    2.6062   -9.2577    5.2852 LP  0  0  0  0  0  0  0  0  0  0  0  0  # atno 4302 bound_to 2510
   -3.3644  -16.7947   14.6102 LP  0  0  0  0  0  0  0  0  0  0  0  0  # atno 4306 bound_to 3712
   -3.3107  -17.1361   13.0142 LP  0  0  0  0  0  0  0  0  0  0  0  0  # atno 4307 bound_to 3712
    2.3157  -21.1253    9.4601 LP  0  0  0  0  0  0  0  0  0  0  0  0  # atno 4314 bound_to 3832
    1.4604  -19.8683    8.8642 LP  0  0  0  0  0  0  0  0  0  0  0  0  # atno 4315 bound_to 3832
   -4.8140  -21.9817   11.5381 LP  0  0  0  0  0  0  0  0  0  0  0  0  # atno 4318 bound_to 3762
   -3.9683  -23.2079   10.8690 LP  0  0  0  0  0  0  0  0  0  0  0  0  # atno 4319 bound_to 3762
   -3.9026   -4.8420    7.9492 LP  0  0  0  0  0  0  0  0  0  0  0  0  # atno 4320 bound_to 2467
   -4.3389   -5.4178    9.4137 LP  0  0  0  0  0  0  0  0  0  0  0  0  # atno 4321 bound_to 2467

> <Gold.Score>
     Score     S(PLP)   S(hbond)     S(cho)   S(metal)  DE(clash)   DE(tors)     intcor
     33.60     -30.81       1.00       0.00       0.00       0.00       0.11       0.02

> <Gold.PLP.Fitness>
33.5963

> <Gold.PLP.PLP>
-30.8074

> <Gold.PLP.part.hbond>
-1.0000

> <Gold.PLP.part.metal>
0.0000

> <Gold.PLP.part.buried>
-2.6170

> <Gold.PLP.part.nonpolar>
-26.8008

> <Gold.PLP.part.repulsive>
0.0718

> <Gold.PLP.ligand.clash>
0.0000

> <Gold.PLP.ligand.torsion>
0.1135

> <Gold.PLP.Chemscore.Hbond>
1.0000

> <Gold.PLP.Chemscore.CHOScore>
0.0000

> <Gold.PLP.Chemscore.Metal>
0.0000

> <Gold.Chemscore.Hbonds>
donor molecule, donor type, donor heavy atom, donor atom, acceptor molecule, acceptor atom, score
      P1  H  3712  3721       L1    10  1.00

> <Gold.PLP.Chemscore.Internal.Correction>
0.0159

