#       Name:                EN300-1087079_i001
#       Creating user name   fsindt
#       Creation time:       Wed Mar  1 22:25:11 2023


#       File generated by GOLD software.
#

@<TRIPOS>MOLECULE
EN300-1087079_i001|acide_1|mol2|10295|dock14
    27    27     1
SMALL
USER_CHARGES


@<TRIPOS>ATOM
      1 C1          -2.2704  -9.6015  10.6938 C.3            1 <1>                0.0000
      2 C2          -1.7018 -10.2461   9.4282 C.3            1 <1>                0.0000
      3 C3          -1.6983 -11.7677   9.5883 C.3            1 <1>                0.0000
      4 C4          -1.1393 -12.1723  10.9779 C.3            1 <1>                0.0000
      5 C5          -0.5925 -13.5931  10.6916 C.3            1 <1>                0.0000
      6 N6          -0.0340 -13.5152   9.3295 N.am           1 <1>                0.0000
      7 C7          -0.6967 -12.4173   8.6103 C.3            1 <1>                0.0000
      8 C8           0.3257 -11.4003   8.1730 C.2            1 <1>                0.0000
      9 O9           0.4962 -11.1786   6.9863 O.co2          1 <1>                0.0000
     10 O10          0.9826 -10.7993   9.0060 O.co2          1 <1>               -1.0000
     11 C11          0.9258 -14.3170   8.8270 C.2            1 <1>                0.0000
     12 O12          1.4039 -15.1945   9.5142 O.2            1 <1>                0.0000
     13 C13          1.4047 -14.1233   7.4114 C.3            1 <1>                0.0000
     14 H14         -2.2729  -8.5175  10.5798 H              1 <1>                0.0000
     15 H15         -3.2900  -9.9523  10.8536 H              1 <1>                0.0000
     16 H16         -1.6536  -9.8753  11.5497 H              1 <1>                0.0000
     17 H17         -2.3185  -9.9722   8.5723 H              1 <1>                0.0000
     18 H18         -0.6822  -9.8954   9.2683 H              1 <1>                0.0000
     19 H19         -2.7002 -12.1717   9.4432 H              1 <1>                0.0000
     20 H20         -0.3386 -11.5006  11.2875 H              1 <1>                0.0000
     21 H21         -1.9328 -12.2021  11.7247 H              1 <1>                0.0000
     22 H22          0.1881 -13.8506  11.4075 H              1 <1>                0.0000
     23 H23         -1.3995 -14.3249  10.7294 H              1 <1>                0.0000
     24 H24         -1.2271 -12.8096   7.7426 H              1 <1>                0.0000
     25 H25          0.8637 -13.2942   6.9550 H              1 <1>                0.0000
     26 H26          2.4720 -13.9019   7.4160 H              1 <1>                0.0000
     27 H27          1.2247 -15.0334   6.8391 H              1 <1>                0.0000
@<TRIPOS>BOND
    1    1    2 1     
    2    1   14 1     
    3    1   15 1     
    4    1   16 1     
    5    2    3 1     
    6    2   17 1     
    7    2   18 1     
    8    3    4 1     
    9    3    7 1     
   10    3   19 1     
   11    4    5 1     
   12    4   20 1     
   13    4   21 1     
   14    5    6 1     
   15    5   22 1     
   16    5   23 1     
   17    6    7 1     
   18    6   11 am    
   19    7    8 1     
   20    7   24 1     
   21    8    9 ar    
   22    8   10 ar    
   23   11   12 2     
   24   11   13 1     
   25   13   25 1     
   26   13   26 1     
   27   13   27 1     
@<TRIPOS>SUBSTRUCTURE
      1 ****           1
@<TRIPOS>COMMENT
> <Gold.Version>
2022.2.0

> <Gold.Id.Protein>
3pbl|protein|mol2

> <Gold.Protein.RotatedTorsions>
[ 1303 1298 1297 1294 ] final   13.59 input  179.99 | X-H torsion
[ 2461 2456 2455 2452 ] final -158.67 input   30.03 | X-H torsion
[ 2515 2510 2509 2506 ] final  119.50 input  -89.99 | X-H torsion
[ 3721 3712 3711 3710 ] final   17.03 input -179.91 | X-H torsion
[ 3841 3832 3831 3830 ] final  -32.59 input -179.91 | X-H torsion
[ 3767 3762 3761 3758 ] final    0.70 input  -89.99 | X-H torsion
[ 2472 2467 2466 2463 ] final   -6.27 input  -89.97 | X-H torsion

> <Gold.Protein.ActiveResidues>
 VAL82   VAL86   LEU89   PHE106  VAL107  ASP110  VAL111  MET112  CYS114  THR115 
 CYS181  SER182  ILE183  PHE188  VAL189  ILE190  SER192  SER193  SER196  TRP342 
 PHE345  PHE346  HIS349  VAL350  TYR365  THR369  GLY372  TYR373 

> <Gold.Protein.RotatedAtoms>
    3.4758  -10.0340    4.1723 H   0  0  0  0  0  0  0  0  0  0  0  0  # atno 1303 bound_to 1298
    1.1122   -9.2861    8.3521 H   0  0  0  0  0  0  0  0  0  0  0  0  # atno 2461 bound_to 2456
   -3.7447   -4.9007    8.1580 H   0  0  0  0  0  0  0  0  0  0  0  0  # atno 2472 bound_to 2467
    2.0406   -8.1582    6.0643 H   0  0  0  0  0  0  0  0  0  0  0  0  # atno 2515 bound_to 2510
   -2.4699  -18.0246   13.9956 H   0  0  0  0  0  0  0  0  0  0  0  0  # atno 3721 bound_to 3712
   -5.3168  -22.7253   10.1430 H   0  0  0  0  0  0  0  0  0  0  0  0  # atno 3767 bound_to 3762
    1.5662  -20.1005    9.3183 H   0  0  0  0  0  0  0  0  0  0  0  0  # atno 3841 bound_to 3832
    4.0462   -8.5162    3.9791 LP  0  0  0  0  0  0  0  0  0  0  0  0  # atno 4297 bound_to 1298
    4.8404   -9.5708    4.9402 LP  0  0  0  0  0  0  0  0  0  0  0  0  # atno 4298 bound_to 1298
    2.0969   -8.2086    7.6194 LP  0  0  0  0  0  0  0  0  0  0  0  0  # atno 4299 bound_to 2456
    0.5286   -8.3137    7.1769 LP  0  0  0  0  0  0  0  0  0  0  0  0  # atno 4300 bound_to 2456
    2.5442   -7.6341    4.6023 LP  0  0  0  0  0  0  0  0  0  0  0  0  # atno 4301 bound_to 2510
    2.7121   -9.2069    5.0083 LP  0  0  0  0  0  0  0  0  0  0  0  0  # atno 4302 bound_to 2510
   -3.3314  -16.8444   14.6609 LP  0  0  0  0  0  0  0  0  0  0  0  0  # atno 4306 bound_to 3712
   -3.3447  -17.0722   13.0440 LP  0  0  0  0  0  0  0  0  0  0  0  0  # atno 4307 bound_to 3712
    2.6268  -19.8630    8.1372 LP  0  0  0  0  0  0  0  0  0  0  0  0  # atno 4314 bound_to 3832
    2.7934  -21.1232    9.1624 LP  0  0  0  0  0  0  0  0  0  0  0  0  # atno 4315 bound_to 3832
   -4.8586  -21.9657   11.5141 LP  0  0  0  0  0  0  0  0  0  0  0  0  # atno 4318 bound_to 3762
   -3.9521  -23.1841   10.9137 LP  0  0  0  0  0  0  0  0  0  0  0  0  # atno 4319 bound_to 3762
   -4.6040   -5.4535    9.4318 LP  0  0  0  0  0  0  0  0  0  0  0  0  # atno 4320 bound_to 2467
   -5.3681   -5.0393    8.0493 LP  0  0  0  0  0  0  0  0  0  0  0  0  # atno 4321 bound_to 2467

> <Gold.Score>
     Score     S(PLP)   S(hbond)     S(cho)   S(metal)  DE(clash)   DE(tors)     intcor
     39.05     -36.39       1.00       0.00       0.00       0.00       0.18       0.02

> <Gold.PLP.Fitness>
39.0543

> <Gold.PLP.PLP>
-36.3908

> <Gold.PLP.part.hbond>
-2.0000

> <Gold.PLP.part.metal>
0.0000

> <Gold.PLP.part.buried>
-0.7516

> <Gold.PLP.part.nonpolar>
-37.5432

> <Gold.PLP.part.repulsive>
3.3257

> <Gold.PLP.ligand.clash>
0.0000

> <Gold.PLP.ligand.torsion>
0.1762

> <Gold.PLP.Chemscore.Hbond>
1.0000

> <Gold.PLP.Chemscore.CHOScore>
0.0000

> <Gold.PLP.Chemscore.Metal>
0.0000

> <Gold.Chemscore.Hbonds>
donor molecule, donor type, donor heavy atom, donor atom, acceptor molecule, acceptor atom, score
      P1  H  2456  2461       L1    10  1.00

> <Gold.PLP.Chemscore.Internal.Correction>
0.0159

