#       Name:                EN300-1087079_i001
#       Creating user name   fsindt
#       Creation time:       Wed Mar  1 22:25:13 2023


#       File generated by GOLD software.
#

@<TRIPOS>MOLECULE
EN300-1087079_i001|acide_1|mol2|10295|dock18
    27    27     1
SMALL
USER_CHARGES


@<TRIPOS>ATOM
      1 C1           1.4661 -22.6243  13.9125 C.3            1 <1>                0.0000
      2 C2           0.6625 -21.3726  13.5542 C.3            1 <1>                0.0000
      3 C3           1.5608 -20.1394  13.6700 C.3            1 <1>                0.0000
      4 C4           1.6963 -19.6960  15.1506 C.3            1 <1>                0.0000
      5 C5           1.9994 -18.1847  14.9961 C.3            1 <1>                0.0000
      6 N6           1.1772 -17.7498  13.8523 N.am           1 <1>                0.0000
      7 C7           0.8977 -18.9164  13.0021 C.3            1 <1>                0.0000
      8 C8          -0.5904 -19.1317  12.9006 C.2            1 <1>                0.0000
      9 O9          -1.2516 -19.3051  13.9101 O.co2          1 <1>                0.0000
     10 O10         -1.1330 -19.1327  11.8088 O.co2          1 <1>               -1.0000
     11 C11          0.7515 -16.4916  13.6243 C.2            1 <1>                0.0000
     12 O12          1.0434 -15.6034  14.3968 O.2            1 <1>                0.0000
     13 C13         -0.0870 -16.1883  12.4095 C.3            1 <1>                0.0000
     14 H14          0.8261 -23.5028  13.8301 H              1 <1>                0.0000
     15 H15          2.3088 -22.7232  13.2284 H              1 <1>                0.0000
     16 H16          1.8356 -22.5386  14.9344 H              1 <1>                0.0000
     17 H17          0.2929 -21.4583  12.5324 H              1 <1>                0.0000
     18 H18         -0.1803 -21.2736  14.2383 H              1 <1>                0.0000
     19 H19          2.5407 -20.3357  13.2349 H              1 <1>                0.0000
     20 H20          0.7640 -19.8540  15.6926 H              1 <1>                0.0000
     21 H21          2.5228 -20.2123  15.6389 H              1 <1>                0.0000
     22 H22          1.7099 -17.6456  15.8981 H              1 <1>                0.0000
     23 H23          3.0572 -18.0297  14.7836 H              1 <1>                0.0000
     24 H24          1.3205 -18.7614  12.0095 H              1 <1>                0.0000
     25 H25         -0.2446 -17.1037  11.8390 H              1 <1>                0.0000
     26 H26         -1.0500 -15.7858  12.7239 H              1 <1>                0.0000
     27 H27          0.4270 -15.4560  11.7867 H              1 <1>                0.0000
@<TRIPOS>BOND
    1    1    2 1     
    2    1   14 1     
    3    1   15 1     
    4    1   16 1     
    5    2    3 1     
    6    2   17 1     
    7    2   18 1     
    8    3    4 1     
    9    3    7 1     
   10    3   19 1     
   11    4    5 1     
   12    4   20 1     
   13    4   21 1     
   14    5    6 1     
   15    5   22 1     
   16    5   23 1     
   17    6    7 1     
   18    6   11 am    
   19    7    8 1     
   20    7   24 1     
   21    8    9 ar    
   22    8   10 ar    
   23   11   12 2     
   24   11   13 1     
   25   13   25 1     
   26   13   26 1     
   27   13   27 1     
@<TRIPOS>SUBSTRUCTURE
      1 ****           1
@<TRIPOS>COMMENT
> <Gold.Version>
2022.2.0

> <Gold.Id.Protein>
3pbl|protein|mol2

> <Gold.Protein.RotatedTorsions>
[ 1303 1298 1297 1294 ] final   88.73 input  179.99 | X-H torsion
[ 2461 2456 2455 2452 ] final -156.31 input   30.03 | X-H torsion
[ 2515 2510 2509 2506 ] final   60.13 input  -89.99 | X-H torsion
[ 3721 3712 3711 3710 ] final   28.00 input -179.91 | X-H torsion
[ 3841 3832 3831 3830 ] final    6.33 input -179.91 | X-H torsion
[ 3767 3762 3761 3758 ] final -111.35 input  -89.99 | X-H torsion
[ 2472 2467 2466 2463 ] final   92.76 input  -89.97 | X-H torsion

> <Gold.Protein.ActiveResidues>
 VAL82   VAL86   LEU89   PHE106  VAL107  ASP110  VAL111  MET112  CYS114  THR115 
 CYS181  SER182  ILE183  PHE188  VAL189  ILE190  SER192  SER193  SER196  TRP342 
 PHE345  PHE346  HIS349  VAL350  TYR365  THR369  GLY372  TYR373 

> <Gold.Protein.RotatedAtoms>
    4.3984  -10.1313    4.8512 H   0  0  0  0  0  0  0  0  0  0  0  0  # atno 1303 bound_to 1298
    1.0750   -9.2880    8.3410 H   0  0  0  0  0  0  0  0  0  0  0  0  # atno 2461 bound_to 2456
   -5.1378   -4.9317    7.8188 H   0  0  0  0  0  0  0  0  0  0  0  0  # atno 2472 bound_to 2467
    2.1494   -7.4629    5.4510 H   0  0  0  0  0  0  0  0  0  0  0  0  # atno 2515 bound_to 2510
   -2.4792  -18.0340   13.8305 H   0  0  0  0  0  0  0  0  0  0  0  0  # atno 3721 bound_to 3712
   -4.9658  -21.9348   11.4460 H   0  0  0  0  0  0  0  0  0  0  0  0  # atno 3767 bound_to 3762
    1.7951  -20.5575    9.5857 H   0  0  0  0  0  0  0  0  0  0  0  0  # atno 3841 bound_to 3832
    3.3402   -9.4125    3.8363 LP  0  0  0  0  0  0  0  0  0  0  0  0  # atno 4297 bound_to 1298
    4.6234   -8.5771    4.4039 LP  0  0  0  0  0  0  0  0  0  0  0  0  # atno 4298 bound_to 1298
    2.1101   -8.2321    7.6474 LP  0  0  0  0  0  0  0  0  0  0  0  0  # atno 4299 bound_to 2456
    0.5526   -8.2883    7.1599 LP  0  0  0  0  0  0  0  0  0  0  0  0  # atno 4300 bound_to 2456
    2.8230   -8.4981    4.3831 LP  0  0  0  0  0  0  0  0  0  0  0  0  # atno 4301 bound_to 2510
    2.3244   -9.0386    5.8411 LP  0  0  0  0  0  0  0  0  0  0  0  0  # atno 4302 bound_to 2510
   -3.2482  -16.9742   14.7596 LP  0  0  0  0  0  0  0  0  0  0  0  0  # atno 4306 bound_to 3712
   -3.4171  -16.9315   13.1359 LP  0  0  0  0  0  0  0  0  0  0  0  0  # atno 4307 bound_to 3712
    2.0502  -19.6395    8.2941 LP  0  0  0  0  0  0  0  0  0  0  0  0  # atno 4314 bound_to 3832
    3.1055  -20.8188    8.6966 LP  0  0  0  0  0  0  0  0  0  0  0  0  # atno 4315 bound_to 3832
   -3.9228  -23.1179   11.0228 LP  0  0  0  0  0  0  0  0  0  0  0  0  # atno 4318 bound_to 3762
   -5.2389  -22.8220   10.1025 LP  0  0  0  0  0  0  0  0  0  0  0  0  # atno 4319 bound_to 3762
   -3.6418   -5.0009    8.4696 LP  0  0  0  0  0  0  0  0  0  0  0  0  # atno 4320 bound_to 2467
   -4.9375   -5.4609    9.3506 LP  0  0  0  0  0  0  0  0  0  0  0  0  # atno 4321 bound_to 2467

> <Gold.Score>
     Score     S(PLP)   S(hbond)     S(cho)   S(metal)  DE(clash)   DE(tors)     intcor
     33.33     -27.60       2.00       0.00       0.00       0.00       0.14       0.02

> <Gold.PLP.Fitness>
33.3321

> <Gold.PLP.PLP>
-27.6011

> <Gold.PLP.part.hbond>
-2.0000

> <Gold.PLP.part.metal>
0.0000

> <Gold.PLP.part.buried>
-0.6605

> <Gold.PLP.part.nonpolar>
-25.4013

> <Gold.PLP.part.repulsive>
0.0526

> <Gold.PLP.ligand.clash>
0.0000

> <Gold.PLP.ligand.torsion>
0.1424

> <Gold.PLP.Chemscore.Hbond>
2.0000

> <Gold.PLP.Chemscore.CHOScore>
0.0000

> <Gold.PLP.Chemscore.Metal>
0.0000

> <Gold.Chemscore.Hbonds>
donor molecule, donor type, donor heavy atom, donor atom, acceptor molecule, acceptor atom, score
      P1  H  2305  2313       L1    12  1.00
      P1  H  3712  3721       L1     9  1.00

> <Gold.PLP.Chemscore.Internal.Correction>
0.0159

