#       Name:                EN300-1087079_i001
#       Creating user name   fsindt
#       Creation time:       Wed Mar  1 22:25:10 2023


#       File generated by GOLD software.
#

@<TRIPOS>MOLECULE
EN300-1087079_i001|acide_1|mol2|10295|dock11
    27    27     1
SMALL
USER_CHARGES


@<TRIPOS>ATOM
      1 C1          -0.7723 -22.7048  12.2406 C.3            1 <1>                0.0000
      2 C2          -0.4916 -21.3064  11.6867 C.3            1 <1>                0.0000
      3 C3           0.7974 -20.7620  12.3055 C.3            1 <1>                0.0000
      4 C4           0.7267 -20.8124  13.8546 C.3            1 <1>                0.0000
      5 C5           1.6998 -19.6731  14.2476 C.3            1 <1>                0.0000
      6 N6           1.4862 -18.6268  13.2312 N.am           1 <1>                0.0000
      7 C7           0.9478 -19.2538  12.0152 C.3            1 <1>                0.0000
      8 C8          -0.3967 -18.6589  11.6843 C.2            1 <1>                0.0000
      9 O9          -1.2797 -18.6424  12.5248 O.co2          1 <1>                0.0000
     10 O10         -0.6014 -18.1942  10.5758 O.co2          1 <1>               -1.0000
     11 C11          1.7415 -17.3131  13.3906 C.2            1 <1>                0.0000
     12 O12          1.5260 -16.5389  12.4822 O.2            1 <1>                0.0000
     13 C13          2.2948 -16.8061  14.6973 C.3            1 <1>                0.0000
     14 H14         -1.6906 -23.0926  11.7998 H              1 <1>                0.0000
     15 H15          0.0574 -23.3668  11.9931 H              1 <1>                0.0000
     16 H16         -0.8836 -22.6510  13.3236 H              1 <1>                0.0000
     17 H17         -0.3804 -21.3602  10.6038 H              1 <1>                0.0000
     18 H18         -1.3213 -20.6443  11.9342 H              1 <1>                0.0000
     19 H19          1.6624 -21.3158  11.9408 H              1 <1>                0.0000
     20 H20         -0.2833 -20.6023  14.2066 H              1 <1>                0.0000
     21 H21          1.0778 -21.7733  14.2307 H              1 <1>                0.0000
     22 H22          1.4578 -19.2928  15.2401 H              1 <1>                0.0000
     23 H23          2.7304 -20.0270  14.2170 H              1 <1>                0.0000
     24 H24          1.6369 -19.1031  11.1842 H              1 <1>                0.0000
     25 H25          2.4212 -17.6409  15.3868 H              1 <1>                0.0000
     26 H26          3.2595 -16.3295  14.5231 H              1 <1>                0.0000
     27 H27          1.6038 -16.0811  15.1277 H              1 <1>                0.0000
@<TRIPOS>BOND
    1    1    2 1     
    2    1   14 1     
    3    1   15 1     
    4    1   16 1     
    5    2    3 1     
    6    2   17 1     
    7    2   18 1     
    8    3    4 1     
    9    3    7 1     
   10    3   19 1     
   11    4    5 1     
   12    4   20 1     
   13    4   21 1     
   14    5    6 1     
   15    5   22 1     
   16    5   23 1     
   17    6    7 1     
   18    6   11 am    
   19    7    8 1     
   20    7   24 1     
   21    8    9 ar    
   22    8   10 ar    
   23   11   12 2     
   24   11   13 1     
   25   13   25 1     
   26   13   26 1     
   27   13   27 1     
@<TRIPOS>SUBSTRUCTURE
      1 ****           1
@<TRIPOS>COMMENT
> <Gold.Version>
2022.2.0

> <Gold.Id.Protein>
3pbl|protein|mol2

> <Gold.Protein.RotatedTorsions>
[ 1303 1298 1297 1294 ] final  -26.94 input  179.99 | X-H torsion
[ 2461 2456 2455 2452 ] final  107.81 input   30.03 | X-H torsion
[ 2515 2510 2509 2506 ] final   42.82 input  -89.99 | X-H torsion
[ 3721 3712 3711 3710 ] final   64.56 input -179.91 | X-H torsion
[ 3841 3832 3831 3830 ] final  -52.11 input -179.91 | X-H torsion
[ 3767 3762 3761 3758 ] final  109.55 input  -89.99 | X-H torsion
[ 2472 2467 2466 2463 ] final  -43.14 input  -89.97 | X-H torsion

> <Gold.Protein.ActiveResidues>
 VAL82   VAL86   LEU89   PHE106  VAL107  ASP110  VAL111  MET112  CYS114  THR115 
 CYS181  SER182  ILE183  PHE188  VAL189  ILE190  SER192  SER193  SER196  TRP342 
 PHE345  PHE346  HIS349  VAL350  TYR365  THR369  GLY372  TYR373 

> <Gold.Protein.RotatedAtoms>
    3.3326   -9.4800    3.8578 H   0  0  0  0  0  0  0  0  0  0  0  0  # atno 1303 bound_to 1298
    2.1582   -8.5002    7.9321 H   0  0  0  0  0  0  0  0  0  0  0  0  # atno 2461 bound_to 2456
   -3.6455   -5.0904    8.7146 H   0  0  0  0  0  0  0  0  0  0  0  0  # atno 2472 bound_to 2467
    2.2478   -7.4095    5.1904 H   0  0  0  0  0  0  0  0  0  0  0  0  # atno 2515 bound_to 2510
   -2.6162  -17.8726   13.3301 H   0  0  0  0  0  0  0  0  0  0  0  0  # atno 3721 bound_to 3712
   -4.0170  -23.2580   10.7593 H   0  0  0  0  0  0  0  0  0  0  0  0  # atno 3767 bound_to 3762
    1.5816  -19.8870    9.1176 H   0  0  0  0  0  0  0  0  0  0  0  0  # atno 3841 bound_to 3832
    4.5760   -8.5482    4.3597 LP  0  0  0  0  0  0  0  0  0  0  0  0  # atno 4297 bound_to 1298
    4.4538  -10.0931    4.8743 LP  0  0  0  0  0  0  0  0  0  0  0  0  # atno 4298 bound_to 1298
    0.8573   -8.0667    7.0449 LP  0  0  0  0  0  0  0  0  0  0  0  0  # atno 4299 bound_to 2456
    0.7226   -9.2413    8.1712 LP  0  0  0  0  0  0  0  0  0  0  0  0  # atno 4300 bound_to 2456
    2.8354   -8.7613    4.4882 LP  0  0  0  0  0  0  0  0  0  0  0  0  # atno 4301 bound_to 2510
    2.2136   -8.8288    5.9966 LP  0  0  0  0  0  0  0  0  0  0  0  0  # atno 4302 bound_to 2510
   -2.9471  -17.4854   14.8528 LP  0  0  0  0  0  0  0  0  0  0  0  0  # atno 4306 bound_to 3712
   -3.5601  -16.6067   13.6204 LP  0  0  0  0  0  0  0  0  0  0  0  0  # atno 4307 bound_to 3712
    2.8688  -20.0755    8.1776 LP  0  0  0  0  0  0  0  0  0  0  0  0  # atno 4314 bound_to 3832
    2.5336  -21.1574    9.3539 LP  0  0  0  0  0  0  0  0  0  0  0  0  # atno 4315 bound_to 3832
   -5.4067  -22.5880   10.2240 LP  0  0  0  0  0  0  0  0  0  0  0  0  # atno 4318 bound_to 3762
   -4.7034  -22.0294   11.5877 LP  0  0  0  0  0  0  0  0  0  0  0  0  # atno 4319 bound_to 3762
   -5.1600   -5.4373    9.2170 LP  0  0  0  0  0  0  0  0  0  0  0  0  # atno 4320 bound_to 2467
   -4.9112   -4.8659    7.7076 LP  0  0  0  0  0  0  0  0  0  0  0  0  # atno 4321 bound_to 2467

> <Gold.Score>
     Score     S(PLP)   S(hbond)     S(cho)   S(metal)  DE(clash)   DE(tors)     intcor
     32.84     -30.02       1.00       0.00       0.00       0.00       0.10       0.02

> <Gold.PLP.Fitness>
32.8378

> <Gold.PLP.PLP>
-30.0236

> <Gold.PLP.part.hbond>
-1.0000

> <Gold.PLP.part.metal>
0.0000

> <Gold.PLP.part.buried>
-4.5028

> <Gold.PLP.part.nonpolar>
-25.5787

> <Gold.PLP.part.repulsive>
0.1776

> <Gold.PLP.ligand.clash>
0.0000

> <Gold.PLP.ligand.torsion>
0.1008

> <Gold.PLP.Chemscore.Hbond>
1.0000

> <Gold.PLP.Chemscore.CHOScore>
0.0000

> <Gold.PLP.Chemscore.Metal>
0.0000

> <Gold.Chemscore.Hbonds>
donor molecule, donor type, donor heavy atom, donor atom, acceptor molecule, acceptor atom, score
      P1  H  3712  3721       L1     9  1.00

> <Gold.PLP.Chemscore.Internal.Correction>
0.0159

