#       Name:                EN300-1087079_i001
#       Creating user name   fsindt
#       Creation time:       Wed Mar  1 22:25:14 2023


#       File generated by GOLD software.
#

@<TRIPOS>MOLECULE
EN300-1087079_i001|acide_1|mol2|10295|dock20
    27    27     1
SMALL
USER_CHARGES


@<TRIPOS>ATOM
      1 C1           1.9158 -16.5892  14.0269 C.3            1 <1>                0.0000
      2 C2           1.1119 -17.7026  14.7014 C.3            1 <1>                0.0000
      3 C3           1.7022 -19.0613  14.3187 C.3            1 <1>                0.0000
      4 C4           1.3034 -19.4445  12.8691 C.3            1 <1>                0.0000
      5 C5           1.3691 -20.9911  12.9270 C.3            1 <1>                0.0000
      6 N6           0.8686 -21.3402  14.2691 N.am           1 <1>                0.0000
      7 C7           1.0687 -20.1886  15.1610 C.3            1 <1>                0.0000
      8 C8          -0.2570 -19.7323  15.7138 C.2            1 <1>                0.0000
      9 O9          -0.4724 -19.7965  16.9121 O.co2          1 <1>                0.0000
     10 O10         -1.1140 -19.2990  14.9626 O.co2          1 <1>               -1.0000
     11 C11          0.3183 -22.5194  14.6200 C.2            1 <1>                0.0000
     12 O12          0.2022 -23.4030  13.7975 O.2            1 <1>                0.0000
     13 C13         -0.1529 -22.7398  16.0343 C.3            1 <1>                0.0000
     14 H14          1.4952 -15.6212  14.2995 H              1 <1>                0.0000
     15 H15          2.9537 -16.6400  14.3559 H              1 <1>                0.0000
     16 H16          1.8710 -16.7130  12.9449 H              1 <1>                0.0000
     17 H17          1.1566 -17.5788  15.7833 H              1 <1>                0.0000
     18 H18          0.0740 -17.6519  14.3724 H              1 <1>                0.0000
     19 H19          2.7863 -19.0548  14.4315 H              1 <1>                0.0000
     20 H20          0.2936 -19.1047  12.6390 H              1 <1>                0.0000
     21 H21          2.0204 -19.0497  12.1493 H              1 <1>                0.0000
     22 H22          0.7303 -21.4270  12.1588 H              1 <1>                0.0000
     23 H23          2.3972 -21.3320  12.8050 H              1 <1>                0.0000
     24 H24          1.7380 -20.4631  15.9763 H              1 <1>                0.0000
     25 H25          0.0326 -21.8415  16.6233 H              1 <1>                0.0000
     26 H26         -1.2207 -22.9584  16.0317 H              1 <1>                0.0000
     27 H27          0.3888 -23.5789  16.4711 H              1 <1>                0.0000
@<TRIPOS>BOND
    1    1    2 1     
    2    1   14 1     
    3    1   15 1     
    4    1   16 1     
    5    2    3 1     
    6    2   17 1     
    7    2   18 1     
    8    3    4 1     
    9    3    7 1     
   10    3   19 1     
   11    4    5 1     
   12    4   20 1     
   13    4   21 1     
   14    5    6 1     
   15    5   22 1     
   16    5   23 1     
   17    6    7 1     
   18    6   11 am    
   19    7    8 1     
   20    7   24 1     
   21    8    9 ar    
   22    8   10 ar    
   23   11   12 2     
   24   11   13 1     
   25   13   25 1     
   26   13   26 1     
   27   13   27 1     
@<TRIPOS>SUBSTRUCTURE
      1 ****           1
@<TRIPOS>COMMENT
> <Gold.Version>
2022.2.0

> <Gold.Id.Protein>
3pbl|protein|mol2

> <Gold.Protein.RotatedTorsions>
[ 1303 1298 1297 1294 ] final -137.22 input  179.99 | X-H torsion
[ 2461 2456 2455 2452 ] final  -55.97 input   30.03 | X-H torsion
[ 2515 2510 2509 2506 ] final -115.85 input  -89.99 | X-H torsion
[ 3721 3712 3711 3710 ] final   -4.09 input -179.91 | X-H torsion
[ 3841 3832 3831 3830 ] final  157.90 input -179.91 | X-H torsion
[ 3767 3762 3761 3758 ] final  -50.55 input  -89.99 | X-H torsion
[ 2472 2467 2466 2463 ] final    1.75 input  -89.97 | X-H torsion

> <Gold.Protein.ActiveResidues>
 VAL82   VAL86   LEU89   PHE106  VAL107  ASP110  VAL111  MET112  CYS114  THR115 
 CYS181  SER182  ILE183  PHE188  VAL189  ILE190  SER192  SER193  SER196  TRP342 
 PHE345  PHE346  HIS349  VAL350  TYR365  THR369  GLY372  TYR373 

> <Gold.Protein.RotatedAtoms>
    4.4598   -8.5003    4.2610 H   0  0  0  0  0  0  0  0  0  0  0  0  # atno 1303 bound_to 1298
    0.3917   -8.5117    7.3269 H   0  0  0  0  0  0  0  0  0  0  0  0  # atno 2461 bound_to 2456
   -3.8143   -4.8696    8.0505 H   0  0  0  0  0  0  0  0  0  0  0  0  # atno 2472 bound_to 2467
    2.7348   -9.1791    4.9407 H   0  0  0  0  0  0  0  0  0  0  0  0  # atno 2515 bound_to 2510
   -2.4966  -17.9312   14.2979 H   0  0  0  0  0  0  0  0  0  0  0  0  # atno 3721 bound_to 3712
   -5.4976  -22.1390   10.6804 H   0  0  0  0  0  0  0  0  0  0  0  0  # atno 3767 bound_to 3762
    3.0992  -20.3119    8.5583 H   0  0  0  0  0  0  0  0  0  0  0  0  # atno 3841 bound_to 3832
    4.5701   -9.9921    4.9159 LP  0  0  0  0  0  0  0  0  0  0  0  0  # atno 4297 bound_to 1298
    3.3321   -9.6293    3.9148 LP  0  0  0  0  0  0  0  0  0  0  0  0  # atno 4298 bound_to 1298
    1.3876   -9.2370    8.3991 LP  0  0  0  0  0  0  0  0  0  0  0  0  # atno 4299 bound_to 2456
    1.9582   -8.0595    7.4220 LP  0  0  0  0  0  0  0  0  0  0  0  0  # atno 4300 bound_to 2456
    2.0495   -8.2324    6.0808 LP  0  0  0  0  0  0  0  0  0  0  0  0  # atno 4301 bound_to 2510
    2.5123   -7.5872    4.6539 LP  0  0  0  0  0  0  0  0  0  0  0  0  # atno 4302 bound_to 2510
   -3.4641  -16.6537   14.3978 LP  0  0  0  0  0  0  0  0  0  0  0  0  # atno 4306 bound_to 3712
   -3.1813  -17.3707   12.9581 LP  0  0  0  0  0  0  0  0  0  0  0  0  # atno 4307 bound_to 3712
    2.0406  -21.0194    9.5355 LP  0  0  0  0  0  0  0  0  0  0  0  0  # atno 4314 bound_to 3832
    1.6086  -19.7226    8.6420 LP  0  0  0  0  0  0  0  0  0  0  0  0  # atno 4315 bound_to 3832
   -4.1882  -22.4187   11.6152 LP  0  0  0  0  0  0  0  0  0  0  0  0  # atno 4318 bound_to 3762
   -4.4418  -23.3172   10.2754 LP  0  0  0  0  0  0  0  0  0  0  0  0  # atno 4319 bound_to 3762
   -4.4730   -5.4391    9.4319 LP  0  0  0  0  0  0  0  0  0  0  0  0  # atno 4320 bound_to 2467
   -5.4295   -5.0848    8.1567 LP  0  0  0  0  0  0  0  0  0  0  0  0  # atno 4321 bound_to 2467

> <Gold.Score>
     Score     S(PLP)   S(hbond)     S(cho)   S(metal)  DE(clash)   DE(tors)     intcor
     31.91     -29.16       1.00       0.00       0.00       0.00       0.13       0.02

> <Gold.PLP.Fitness>
31.9110

> <Gold.PLP.PLP>
-29.1600

> <Gold.PLP.part.hbond>
-1.0000

> <Gold.PLP.part.metal>
0.0000

> <Gold.PLP.part.buried>
-3.4819

> <Gold.PLP.part.nonpolar>
-24.8861

> <Gold.PLP.part.repulsive>
0.1313

> <Gold.PLP.ligand.clash>
0.0000

> <Gold.PLP.ligand.torsion>
0.1324

> <Gold.PLP.Chemscore.Hbond>
1.0000

> <Gold.PLP.Chemscore.CHOScore>
0.0000

> <Gold.PLP.Chemscore.Metal>
0.0000

> <Gold.Chemscore.Hbonds>
donor molecule, donor type, donor heavy atom, donor atom, acceptor molecule, acceptor atom, score
      P1  H  3712  3721       L1    10  1.00

> <Gold.PLP.Chemscore.Internal.Correction>
0.0159

