#       Name:                EN300-1087079_i001
#       Creating user name   fsindt
#       Creation time:       Wed Mar  1 22:25:05 2023


#       File generated by GOLD software.
#

@<TRIPOS>MOLECULE
EN300-1087079_i001|acide_1|mol2|10295|dock1
    27    27     1
SMALL
USER_CHARGES


@<TRIPOS>ATOM
      1 C1          -3.2689  -9.9159   9.6006 C.3            1 <1>                0.0000
      2 C2          -1.9702 -10.2764  10.3247 C.3            1 <1>                0.0000
      3 C3          -1.8938 -11.7932  10.5101 C.3            1 <1>                0.0000
      4 C4          -1.3106 -12.1473  11.9036 C.3            1 <1>                0.0000
      5 C5          -0.6981 -13.5452  11.6382 C.3            1 <1>                0.0000
      6 N6          -0.1494 -13.4639  10.2723 N.am           1 <1>                0.0000
      7 C7          -0.8665 -12.4110   9.5382 C.3            1 <1>                0.0000
      8 C8           0.1048 -11.3541   9.0791 C.2            1 <1>                0.0000
      9 O9           0.1866 -11.0742   7.8953 O.co2          1 <1>                0.0000
     10 O10          0.8088 -10.7790   9.8916 O.co2          1 <1>               -1.0000
     11 C11          0.8452 -14.2276   9.7786 C.2            1 <1>                0.0000
     12 O12          1.3673 -15.0698  10.4780 O.2            1 <1>                0.0000
     13 C13          1.3087 -14.0352   8.3577 C.3            1 <1>                0.0000
     14 H14         -3.3233  -8.8353   9.4685 H              1 <1>                0.0000
     15 H15         -3.2882 -10.4026   8.6254 H              1 <1>                0.0000
     16 H16         -4.1202 -10.2530  10.1919 H              1 <1>                0.0000
     17 H17         -1.1189  -9.9393   9.7335 H              1 <1>                0.0000
     18 H18         -1.9508  -9.7898  11.2999 H              1 <1>                0.0000
     19 H19         -2.8760 -12.2466  10.3766 H              1 <1>                0.0000
     20 H20         -0.5414 -11.4333  12.1980 H              1 <1>                0.0000
     21 H21         -2.0988 -12.2022  12.6545 H              1 <1>                0.0000
     22 H22          0.0967 -13.7534  12.3545 H              1 <1>                0.0000
     23 H23         -1.4693 -14.3137  11.6921 H              1 <1>                0.0000
     24 H24         -1.3812 -12.8425   8.6798 H              1 <1>                0.0000
     25 H25          0.7271 -13.2406   7.8902 H              1 <1>                0.0000
     26 H26          2.3643 -13.7635   8.3534 H              1 <1>                0.0000
     27 H27          1.1699 -14.9624   7.8015 H              1 <1>                0.0000
@<TRIPOS>BOND
    1    1    2 1     
    2    1   14 1     
    3    1   15 1     
    4    1   16 1     
    5    2    3 1     
    6    2   17 1     
    7    2   18 1     
    8    3    4 1     
    9    3    7 1     
   10    3   19 1     
   11    4    5 1     
   12    4   20 1     
   13    4   21 1     
   14    5    6 1     
   15    5   22 1     
   16    5   23 1     
   17    6    7 1     
   18    6   11 am    
   19    7    8 1     
   20    7   24 1     
   21    8    9 ar    
   22    8   10 ar    
   23   11   12 2     
   24   11   13 1     
   25   13   25 1     
   26   13   26 1     
   27   13   27 1     
@<TRIPOS>SUBSTRUCTURE
      1 ****           1
@<TRIPOS>COMMENT
> <Gold.Version>
2022.2.0

> <Gold.Id.Protein>
3pbl|protein|mol2

> <Gold.Protein.RotatedTorsions>
[ 1303 1298 1297 1294 ] final  -71.79 input  179.99 | X-H torsion
[ 2461 2456 2455 2452 ] final -118.85 input   30.03 | X-H torsion
[ 2515 2510 2509 2506 ] final  -49.59 input  -89.99 | X-H torsion
[ 3721 3712 3711 3710 ] final  -95.35 input -179.91 | X-H torsion
[ 3841 3832 3831 3830 ] final   -9.44 input -179.91 | X-H torsion
[ 3767 3762 3761 3758 ] final -114.40 input  -89.99 | X-H torsion
[ 2472 2467 2466 2463 ] final -144.72 input  -89.97 | X-H torsion

> <Gold.Protein.ActiveResidues>
 VAL82   VAL86   LEU89   PHE106  VAL107  ASP110  VAL111  MET112  CYS114  THR115 
 CYS181  SER182  ILE183  PHE188  VAL189  ILE190  SER192  SER193  SER196  TRP342 
 PHE345  PHE346  HIS349  VAL350  TYR365  THR369  GLY372  TYR373 

> <Gold.Protein.RotatedAtoms>
    3.6117   -8.8201    3.7957 H   0  0  0  0  0  0  0  0  0  0  0  0  # atno 1303 bound_to 1298
    0.5632   -9.1664    8.0409 H   0  0  0  0  0  0  0  0  0  0  0  0  # atno 2461 bound_to 2456
   -4.8991   -5.4631    9.3661 H   0  0  0  0  0  0  0  0  0  0  0  0  # atno 2472 bound_to 2467
    2.7986   -8.3328    4.3568 H   0  0  0  0  0  0  0  0  0  0  0  0  # atno 2515 bound_to 2510
   -3.0632  -16.8877   14.6492 H   0  0  0  0  0  0  0  0  0  0  0  0  # atno 3721 bound_to 3712
   -4.9250  -21.9449   11.4735 H   0  0  0  0  0  0  0  0  0  0  0  0  # atno 3767 bound_to 3762
    1.6638  -20.3766    9.5051 H   0  0  0  0  0  0  0  0  0  0  0  0  # atno 3841 bound_to 3832
    4.9000   -9.0381    4.7749 LP  0  0  0  0  0  0  0  0  0  0  0  0  # atno 4297 bound_to 1298
    3.8507  -10.2633    4.5212 LP  0  0  0  0  0  0  0  0  0  0  0  0  # atno 4298 bound_to 1298
    2.1154   -8.6595    8.0762 LP  0  0  0  0  0  0  0  0  0  0  0  0  # atno 4299 bound_to 2456
    1.0590   -7.9824    7.0311 LP  0  0  0  0  0  0  0  0  0  0  0  0  # atno 4300 bound_to 2456
    2.3956   -9.1340    5.7211 LP  0  0  0  0  0  0  0  0  0  0  0  0  # atno 4301 bound_to 2510
    2.1023   -7.5323    5.5978 LP  0  0  0  0  0  0  0  0  0  0  0  0  # atno 4302 bound_to 2510
   -3.3767  -17.0107   13.0793 LP  0  0  0  0  0  0  0  0  0  0  0  0  # atno 4306 bound_to 3712
   -2.6144  -18.2184   13.8711 LP  0  0  0  0  0  0  0  0  0  0  0  0  # atno 4307 bound_to 3712
    2.2875  -19.6920    8.1942 LP  0  0  0  0  0  0  0  0  0  0  0  0  # atno 4314 bound_to 3832
    3.0199  -20.9752    8.8896 LP  0  0  0  0  0  0  0  0  0  0  0  0  # atno 4315 bound_to 3832
   -3.9323  -23.1445   10.9812 LP  0  0  0  0  0  0  0  0  0  0  0  0  # atno 4318 bound_to 3762
   -5.2702  -22.7854   10.1166 LP  0  0  0  0  0  0  0  0  0  0  0  0  # atno 4319 bound_to 3762
   -5.1702   -4.9429    7.8422 LP  0  0  0  0  0  0  0  0  0  0  0  0  # atno 4320 bound_to 2467
   -3.6477   -4.9876    8.4310 LP  0  0  0  0  0  0  0  0  0  0  0  0  # atno 4321 bound_to 2467

> <Gold.Score>
     Score     S(PLP)   S(hbond)     S(cho)   S(metal)  DE(clash)   DE(tors)     intcor
     43.50     -41.72       1.00       0.00       0.00       0.00       0.62       0.02

> <Gold.PLP.Fitness>
43.5014

> <Gold.PLP.PLP>
-41.7165

> <Gold.PLP.part.hbond>
-1.9513

> <Gold.PLP.part.metal>
0.0000

> <Gold.PLP.part.buried>
-3.2268

> <Gold.PLP.part.nonpolar>
-39.1052

> <Gold.PLP.part.repulsive>
1.5608

> <Gold.PLP.ligand.clash>
0.0000

> <Gold.PLP.ligand.torsion>
0.6155

> <Gold.PLP.Chemscore.Hbond>
1.0000

> <Gold.PLP.Chemscore.CHOScore>
0.0000

> <Gold.PLP.Chemscore.Metal>
0.0000

> <Gold.Chemscore.Hbonds>
donor molecule, donor type, donor heavy atom, donor atom, acceptor molecule, acceptor atom, score
      P1  H  2456  2461       L1     9  1.00

> <Gold.PLP.Chemscore.Internal.Correction>
0.0159

