#       Name:                EN300-1087079_i001
#       Creating user name   fsindt
#       Creation time:       Wed Mar  1 22:25:09 2023


#       File generated by GOLD software.
#

@<TRIPOS>MOLECULE
EN300-1087079_i001|acide_1|mol2|10295|dock9
    27    27     1
SMALL
USER_CHARGES


@<TRIPOS>ATOM
      1 C1           1.9839 -16.5101  14.3960 C.3            1 <1>                0.0000
      2 C2           0.6198 -16.7760  13.7564 C.3            1 <1>                0.0000
      3 C3           0.7877 -17.7373  12.5780 C.3            1 <1>                0.0000
      4 C4          -0.5166 -17.8133  11.7412 C.3            1 <1>                0.0000
      5 C5          -0.4000 -19.2236  11.1110 C.3            1 <1>                0.0000
      6 N6           0.2100 -20.0577  12.1624 N.am           1 <1>                0.0000
      7 C7           0.9634 -19.1871  13.0769 C.3            1 <1>                0.0000
      8 C8           0.4170 -19.3177  14.4753 C.2            1 <1>                0.0000
      9 O9          -0.7473 -19.0372  14.7036 O.co2          1 <1>                0.0000
     10 O10          1.1395 -19.7039  15.3783 O.co2          1 <1>               -1.0000
     11 C11          0.0954 -21.3964  12.2683 C.2            1 <1>                0.0000
     12 O12         -0.5546 -22.0156  11.4529 O.2            1 <1>                0.0000
     13 C13          0.7750 -22.1237  13.3996 C.3            1 <1>                0.0000
     14 H14          1.8643 -15.8252  15.2355 H              1 <1>                0.0000
     15 H15          2.4080 -17.4494  14.7510 H              1 <1>                0.0000
     16 H16          2.6513 -16.0662  13.6573 H              1 <1>                0.0000
     17 H17         -0.0476 -17.2198  14.4951 H              1 <1>                0.0000
     18 H18          0.1956 -15.8368  13.4014 H              1 <1>                0.0000
     19 H19          1.6293 -17.4368  11.9539 H              1 <1>                0.0000
     20 H20         -1.3960 -17.7430  12.3814 H              1 <1>                0.0000
     21 H21         -0.5326 -17.0415  10.9717 H              1 <1>                0.0000
     22 H22         -1.3871 -19.6049  10.8493 H              1 <1>                0.0000
     23 H23          0.2417 -19.1937  10.2304 H              1 <1>                0.0000
     24 H24          2.0188 -19.4589  13.0621 H              1 <1>                0.0000
     25 H25          1.3074 -21.4067  14.0248 H              1 <1>                0.0000
     26 H26          0.0272 -22.6432  13.9988 H              1 <1>                0.0000
     27 H27          1.4821 -22.8472  12.9937 H              1 <1>                0.0000
@<TRIPOS>BOND
    1    1    2 1     
    2    1   14 1     
    3    1   15 1     
    4    1   16 1     
    5    2    3 1     
    6    2   17 1     
    7    2   18 1     
    8    3    4 1     
    9    3    7 1     
   10    3   19 1     
   11    4    5 1     
   12    4   20 1     
   13    4   21 1     
   14    5    6 1     
   15    5   22 1     
   16    5   23 1     
   17    6    7 1     
   18    6   11 am    
   19    7    8 1     
   20    7   24 1     
   21    8    9 ar    
   22    8   10 ar    
   23   11   12 2     
   24   11   13 1     
   25   13   25 1     
   26   13   26 1     
   27   13   27 1     
@<TRIPOS>SUBSTRUCTURE
      1 ****           1
@<TRIPOS>COMMENT
> <Gold.Version>
2022.2.0

> <Gold.Id.Protein>
3pbl|protein|mol2

> <Gold.Protein.RotatedTorsions>
[ 1303 1298 1297 1294 ] final  -76.86 input  179.99 | X-H torsion
[ 2461 2456 2455 2452 ] final  127.13 input   30.03 | X-H torsion
[ 2515 2510 2509 2506 ] final -109.64 input  -89.99 | X-H torsion
[ 3721 3712 3711 3710 ] final    0.27 input -179.91 | X-H torsion
[ 3841 3832 3831 3830 ] final  119.87 input -179.91 | X-H torsion
[ 3767 3762 3761 3758 ] final   -3.11 input  -89.99 | X-H torsion
[ 2472 2467 2466 2463 ] final   -0.22 input  -89.97 | X-H torsion

> <Gold.Protein.ActiveResidues>
 VAL82   VAL86   LEU89   PHE106  VAL107  ASP110  VAL111  MET112  CYS114  THR115 
 CYS181  SER182  ILE183  PHE188  VAL189  ILE190  SER192  SER193  SER196  TRP342 
 PHE345  PHE346  HIS349  VAL350  TYR365  THR369  GLY372  TYR373 

> <Gold.Protein.RotatedAtoms>
    3.6672   -8.7598    3.8109 H   0  0  0  0  0  0  0  0  0  0  0  0  # atno 1303 bound_to 1298
    2.0810   -8.7304    8.1352 H   0  0  0  0  0  0  0  0  0  0  0  0  # atno 2461 bound_to 2456
   -3.7958   -4.8768    8.0761 H   0  0  0  0  0  0  0  0  0  0  0  0  # atno 2472 bound_to 2467
    2.7619   -9.1339    4.8533 H   0  0  0  0  0  0  0  0  0  0  0  0  # atno 2515 bound_to 2510
   -2.4864  -17.9582   14.2387 H   0  0  0  0  0  0  0  0  0  0  0  0  # atno 3721 bound_to 3712
   -5.3502  -22.6784   10.1676 H   0  0  0  0  0  0  0  0  0  0  0  0  # atno 3767 bound_to 3762
    3.0807  -20.7261    8.9407 H   0  0  0  0  0  0  0  0  0  0  0  0  # atno 3841 bound_to 3832
    4.9092   -9.1131    4.8104 LP  0  0  0  0  0  0  0  0  0  0  0  0  # atno 4297 bound_to 1298
    3.7860  -10.2487    4.4706 LP  0  0  0  0  0  0  0  0  0  0  0  0  # atno 4298 bound_to 1298
    1.1534   -7.9553    7.0370 LP  0  0  0  0  0  0  0  0  0  0  0  0  # atno 4299 bound_to 2456
    0.5036   -9.1225    7.9761 LP  0  0  0  0  0  0  0  0  0  0  0  0  # atno 4300 bound_to 2456
    2.0656   -8.3324    6.0937 LP  0  0  0  0  0  0  0  0  0  0  0  0  # atno 4301 bound_to 2510
    2.4691   -7.5325    4.7284 LP  0  0  0  0  0  0  0  0  0  0  0  0  # atno 4302 bound_to 2510
   -3.4403  -16.6857   14.4588 LP  0  0  0  0  0  0  0  0  0  0  0  0  # atno 4306 bound_to 3712
   -3.2168  -17.3076   12.9655 LP  0  0  0  0  0  0  0  0  0  0  0  0  # atno 4307 bound_to 3712
    1.5686  -20.6172    9.4677 LP  0  0  0  0  0  0  0  0  0  0  0  0  # atno 4314 bound_to 3832
    2.1021  -19.6463    8.2680 LP  0  0  0  0  0  0  0  0  0  0  0  0  # atno 4315 bound_to 3832
   -4.8060  -21.9847   11.5422 LP  0  0  0  0  0  0  0  0  0  0  0  0  # atno 4318 bound_to 3762
   -3.9714  -23.2120   10.8611 LP  0  0  0  0  0  0  0  0  0  0  0  0  # atno 4319 bound_to 3762
   -4.5051   -5.4432    9.4335 LP  0  0  0  0  0  0  0  0  0  0  0  0  # atno 4320 bound_to 2467
   -5.4159   -5.0735    8.1295 LP  0  0  0  0  0  0  0  0  0  0  0  0  # atno 4321 bound_to 2467

> <Gold.Score>
     Score     S(PLP)   S(hbond)     S(cho)   S(metal)  DE(clash)   DE(tors)     intcor
     32.57     -29.77       1.00       0.00       0.00       0.00       0.11       0.02

> <Gold.PLP.Fitness>
32.5724

> <Gold.PLP.PLP>
-29.7749

> <Gold.PLP.part.hbond>
-1.0000

> <Gold.PLP.part.metal>
0.0000

> <Gold.PLP.part.buried>
-4.4612

> <Gold.PLP.part.nonpolar>
-24.5217

> <Gold.PLP.part.repulsive>
0.0926

> <Gold.PLP.ligand.clash>
0.0000

> <Gold.PLP.ligand.torsion>
0.1092

> <Gold.PLP.Chemscore.Hbond>
1.0000

> <Gold.PLP.Chemscore.CHOScore>
0.0000

> <Gold.PLP.Chemscore.Metal>
0.0000

> <Gold.Chemscore.Hbonds>
donor molecule, donor type, donor heavy atom, donor atom, acceptor molecule, acceptor atom, score
      P1  H  3712  3721       L1     9  1.00

> <Gold.PLP.Chemscore.Internal.Correction>
0.0159

