#       Name:                EN300-1087079_i001
#       Creating user name   fsindt
#       Creation time:       Wed Mar  1 22:25:07 2023


#       File generated by GOLD software.
#

@<TRIPOS>MOLECULE
EN300-1087079_i001|acide_1|mol2|10295|dock4
    27    27     1
SMALL
USER_CHARGES


@<TRIPOS>ATOM
      1 C1           0.5107 -16.0504   7.4434 C.3            1 <1>                0.0000
      2 C2           1.1905 -14.6798   7.4534 C.3            1 <1>                0.0000
      3 C3           0.1492 -13.5961   7.7405 C.3            1 <1>                0.0000
      4 C4           0.8083 -12.1917   7.7560 C.3            1 <1>                0.0000
      5 C5          -0.1535 -11.4070   8.6827 C.3            1 <1>                0.0000
      6 N6          -0.5565 -12.3771   9.7170 N.am           1 <1>                0.0000
      7 C7          -0.4021 -13.7352   9.1752 C.3            1 <1>                0.0000
      8 C8           0.5670 -14.5181  10.0231 C.2            1 <1>                0.0000
      9 O9           1.7317 -14.1659  10.1007 O.co2          1 <1>                0.0000
     10 O10          0.1863 -15.5037  10.6315 O.co2          1 <1>               -1.0000
     11 C11         -0.9933 -12.0700  10.9545 C.2            1 <1>                0.0000
     12 O12         -1.2986 -12.9542  11.7265 O.2            1 <1>                0.0000
     13 C13         -1.1025 -10.6282  11.3788 C.3            1 <1>                0.0000
     14 H14          1.2525 -16.8223   7.2388 H              1 <1>                0.0000
     15 H15          0.0520 -16.2355   8.4147 H              1 <1>                0.0000
     16 H16         -0.2567 -16.0697   6.6695 H              1 <1>                0.0000
     17 H17          1.9579 -14.6604   8.2271 H              1 <1>                0.0000
     18 H18          1.6492 -14.4945   6.4821 H              1 <1>                0.0000
     19 H19         -0.6578 -13.6353   7.0089 H              1 <1>                0.0000
     20 H20          1.8112 -12.2354   8.1810 H              1 <1>                0.0000
     21 H21          0.8280 -11.7582   6.7561 H              1 <1>                0.0000
     22 H22          0.3629 -10.5611   9.1366 H              1 <1>                0.0000
     23 H23         -1.0244 -11.0651   8.1234 H              1 <1>                0.0000
     24 H24         -1.3690 -14.2378   9.1537 H              1 <1>                0.0000
     25 H25         -0.7871  -9.9832  10.5586 H              1 <1>                0.0000
     26 H26         -2.1365 -10.4037  11.6406 H              1 <1>                0.0000
     27 H27         -0.4627 -10.4547  12.2442 H              1 <1>                0.0000
@<TRIPOS>BOND
    1    1    2 1     
    2    1   14 1     
    3    1   15 1     
    4    1   16 1     
    5    2    3 1     
    6    2   17 1     
    7    2   18 1     
    8    3    4 1     
    9    3    7 1     
   10    3   19 1     
   11    4    5 1     
   12    4   20 1     
   13    4   21 1     
   14    5    6 1     
   15    5   22 1     
   16    5   23 1     
   17    6    7 1     
   18    6   11 am    
   19    7    8 1     
   20    7   24 1     
   21    8    9 ar    
   22    8   10 ar    
   23   11   12 2     
   24   11   13 1     
   25   13   25 1     
   26   13   26 1     
   27   13   27 1     
@<TRIPOS>SUBSTRUCTURE
      1 ****           1
@<TRIPOS>COMMENT
> <Gold.Version>
2022.2.0

> <Gold.Id.Protein>
3pbl|protein|mol2

> <Gold.Protein.RotatedTorsions>
[ 1303 1298 1297 1294 ] final  165.68 input  179.99 | X-H torsion
[ 2461 2456 2455 2452 ] final  113.57 input   30.03 | X-H torsion
[ 2515 2510 2509 2506 ] final  -11.90 input  -89.99 | X-H torsion
[ 3721 3712 3711 3710 ] final   -1.78 input -179.91 | X-H torsion
[ 3841 3832 3831 3830 ] final  104.91 input -179.91 | X-H torsion
[ 3767 3762 3761 3758 ] final  -97.23 input  -89.99 | X-H torsion
[ 2472 2467 2466 2463 ] final -110.87 input  -89.97 | X-H torsion

> <Gold.Protein.ActiveResidues>
 VAL82   VAL86   LEU89   PHE106  VAL107  ASP110  VAL111  MET112  CYS114  THR115 
 CYS181  SER182  ILE183  PHE188  VAL189  ILE190  SER192  SER193  SER196  TRP342 
 PHE345  PHE346  HIS349  VAL350  TYR365  THR369  GLY372  TYR373 

> <Gold.Protein.RotatedAtoms>
    4.9049   -9.0750    4.7933 H   0  0  0  0  0  0  0  0  0  0  0  0  # atno 1303 bound_to 1298
    2.1458   -8.5688    7.9963 H   0  0  0  0  0  0  0  0  0  0  0  0  # atno 2461 bound_to 2456
   -4.3539   -5.4213    9.4165 H   0  0  0  0  0  0  0  0  0  0  0  0  # atno 2472 bound_to 2467
    2.6187   -7.7678    4.4944 H   0  0  0  0  0  0  0  0  0  0  0  0  # atno 2515 bound_to 2510
   -2.4909  -17.9460   14.2668 H   0  0  0  0  0  0  0  0  0  0  0  0  # atno 3721 bound_to 3712
   -5.1435  -21.9140   11.2985 H   0  0  0  0  0  0  0  0  0  0  0  0  # atno 3767 bound_to 3762
    2.9828  -20.8435    9.1064 H   0  0  0  0  0  0  0  0  0  0  0  0  # atno 3841 bound_to 3832
    3.8180  -10.2569    4.4960 LP  0  0  0  0  0  0  0  0  0  0  0  0  # atno 4297 bound_to 1298
    3.6390   -8.7895    3.8022 LP  0  0  0  0  0  0  0  0  0  0  0  0  # atno 4298 bound_to 1298
    0.9424   -8.0264    7.0344 LP  0  0  0  0  0  0  0  0  0  0  0  0  # atno 4299 bound_to 2456
    0.6499   -9.2129    8.1176 LP  0  0  0  0  0  0  0  0  0  0  0  0  # atno 4300 bound_to 2456
    2.6490   -9.2495    5.1795 LP  0  0  0  0  0  0  0  0  0  0  0  0  # atno 4301 bound_to 2510
    2.0289   -7.9821    6.0017 LP  0  0  0  0  0  0  0  0  0  0  0  0  # atno 4302 bound_to 2510
   -3.4518  -16.6701   14.4305 LP  0  0  0  0  0  0  0  0  0  0  0  0  # atno 4306 bound_to 3712
   -3.2002  -17.3372   12.9613 LP  0  0  0  0  0  0  0  0  0  0  0  0  # atno 4307 bound_to 3712
    1.4556  -20.4215    9.3625 LP  0  0  0  0  0  0  0  0  0  0  0  0  # atno 4314 bound_to 3832
    2.3282  -19.7064    8.1819 LP  0  0  0  0  0  0  0  0  0  0  0  0  # atno 4315 bound_to 3832
   -3.9081  -22.9781   11.2071 LP  0  0  0  0  0  0  0  0  0  0  0  0  # atno 4318 bound_to 3762
   -5.0759  -22.9827   10.0656 LP  0  0  0  0  0  0  0  0  0  0  0  0  # atno 4319 bound_to 3762
   -5.4713   -5.1275    8.2625 LP  0  0  0  0  0  0  0  0  0  0  0  0  # atno 4320 bound_to 2467
   -3.8916   -4.8448    7.9603 LP  0  0  0  0  0  0  0  0  0  0  0  0  # atno 4321 bound_to 2467

> <Gold.Score>
     Score     S(PLP)   S(hbond)     S(cho)   S(metal)  DE(clash)   DE(tors)     intcor
     37.62     -37.73       0.00       0.00       0.00       0.00       0.06       0.02

> <Gold.PLP.Fitness>
37.6225

> <Gold.PLP.PLP>
-37.7315

> <Gold.PLP.part.hbond>
-0.6359

> <Gold.PLP.part.metal>
0.0000

> <Gold.PLP.part.buried>
-3.3617

> <Gold.PLP.part.nonpolar>
-34.7845

> <Gold.PLP.part.repulsive>
0.2717

> <Gold.PLP.ligand.clash>
0.0000

> <Gold.PLP.ligand.torsion>
0.0624

> <Gold.PLP.Chemscore.Hbond>
0.0000

> <Gold.PLP.Chemscore.CHOScore>
0.0000

> <Gold.PLP.Chemscore.Metal>
0.0000

> <Gold.PLP.Chemscore.Internal.Correction>
0.0159

