#       Name:                EN300-1087079_i001
#       Creating user name   fsindt
#       Creation time:       Wed Mar  1 22:25:08 2023


#       File generated by GOLD software.
#

@<TRIPOS>MOLECULE
EN300-1087079_i001|acide_1|mol2|10295|dock7
    27    27     1
SMALL
USER_CHARGES


@<TRIPOS>ATOM
      1 C1           0.0812 -22.3818  12.8543 C.3            1 <1>                0.0000
      2 C2           0.1562 -21.0870  12.0427 C.3            1 <1>                0.0000
      3 C3           1.2294 -20.1734  12.6380 C.3            1 <1>                0.0000
      4 C4           1.0894 -20.0951  14.1813 C.3            1 <1>                0.0000
      5 C5           1.7190 -18.7118  14.4809 C.3            1 <1>                0.0000
      6 N6           1.3030 -17.8558  13.3551 N.am           1 <1>                0.0000
      7 C7           1.0082 -18.7114  12.1963 C.3            1 <1>                0.0000
      8 C8          -0.4230 -18.5167  11.7664 C.2            1 <1>                0.0000
      9 O9          -0.6772 -18.2092  10.6144 O.co2          1 <1>                0.0000
     10 O10         -1.3268 -18.6666  12.5710 O.co2          1 <1>               -1.0000
     11 C11          1.2079 -16.5117  13.3836 C.2            1 <1>                0.0000
     12 O12          1.4771 -15.9063  14.3994 O.2            1 <1>                0.0000
     13 C13          0.7670 -15.7612  12.1535 C.3            1 <1>                0.0000
     14 H14         -0.6833 -23.0327  12.4301 H              1 <1>                0.0000
     15 H15          1.0467 -22.8868  12.8226 H              1 <1>                0.0000
     16 H16         -0.1730 -22.1484  13.8881 H              1 <1>                0.0000
     17 H17          0.4104 -21.3204  11.0088 H              1 <1>                0.0000
     18 H18         -0.8092 -20.5819  12.0743 H              1 <1>                0.0000
     19 H19          2.2252 -20.5172  12.3582 H              1 <1>                0.0000
     20 H20          0.0414 -20.1203  14.4802 H              1 <1>                0.0000
     21 H21          1.6515 -20.8935  14.6656 H              1 <1>                0.0000
     22 H22          1.3348 -18.3157  15.4209 H              1 <1>                0.0000
     23 H23          2.8057 -18.7895  14.5170 H              1 <1>                0.0000
     24 H24          1.6809 -18.4667  11.3742 H              1 <1>                0.0000
     25 H25          0.5709 -16.4682  11.3473 H              1 <1>                0.0000
     26 H26         -0.1419 -15.2019  12.3753 H              1 <1>                0.0000
     27 H27          1.5532 -15.0707  11.8479 H              1 <1>                0.0000
@<TRIPOS>BOND
    1    1    2 1     
    2    1   14 1     
    3    1   15 1     
    4    1   16 1     
    5    2    3 1     
    6    2   17 1     
    7    2   18 1     
    8    3    4 1     
    9    3    7 1     
   10    3   19 1     
   11    4    5 1     
   12    4   20 1     
   13    4   21 1     
   14    5    6 1     
   15    5   22 1     
   16    5   23 1     
   17    6    7 1     
   18    6   11 am    
   19    7    8 1     
   20    7   24 1     
   21    8    9 ar    
   22    8   10 ar    
   23   11   12 2     
   24   11   13 1     
   25   13   25 1     
   26   13   26 1     
   27   13   27 1     
@<TRIPOS>SUBSTRUCTURE
      1 ****           1
@<TRIPOS>COMMENT
> <Gold.Version>
2022.2.0

> <Gold.Id.Protein>
3pbl|protein|mol2

> <Gold.Protein.RotatedTorsions>
[ 1303 1298 1297 1294 ] final  -30.36 input  179.99 | X-H torsion
[ 2461 2456 2455 2452 ] final  160.25 input   30.03 | X-H torsion
[ 2515 2510 2509 2506 ] final  100.45 input  -89.99 | X-H torsion
[ 3721 3712 3711 3710 ] final   56.43 input -179.91 | X-H torsion
[ 3841 3832 3831 3830 ] final  -47.94 input -179.91 | X-H torsion
[ 3767 3762 3761 3758 ] final   92.33 input  -89.99 | X-H torsion
[ 2472 2467 2466 2463 ] final  -35.57 input  -89.97 | X-H torsion

> <Gold.Protein.ActiveResidues>
 VAL82   VAL86   LEU89   PHE106  VAL107  ASP110  VAL111  MET112  CYS114  THR115 
 CYS181  SER182  ILE183  PHE188  VAL189  ILE190  SER192  SER193  SER196  TRP342 
 PHE345  PHE346  HIS349  VAL350  TYR365  THR369  GLY372  TYR373 

> <Gold.Protein.RotatedAtoms>
    3.3382   -9.4267    3.8410 H   0  0  0  0  0  0  0  0  0  0  0  0  # atno 1303 bound_to 1298
    1.7403   -9.0780    8.3634 H   0  0  0  0  0  0  0  0  0  0  0  0  # atno 2461 bound_to 2456
   -3.6347   -5.0473    8.5983 H   0  0  0  0  0  0  0  0  0  0  0  0  # atno 2472 bound_to 2467
    2.0305   -7.8715    5.9419 H   0  0  0  0  0  0  0  0  0  0  0  0  # atno 2515 bound_to 2510
   -2.5731  -17.9326   13.4282 H   0  0  0  0  0  0  0  0  0  0  0  0  # atno 3721 bound_to 3712
   -4.1683  -23.3251   10.5305 H   0  0  0  0  0  0  0  0  0  0  0  0  # atno 3767 bound_to 3762
    1.5707  -19.9297    9.1626 H   0  0  0  0  0  0  0  0  0  0  0  0  # atno 3841 bound_to 3832
    4.6138   -8.5707    4.3946 LP  0  0  0  0  0  0  0  0  0  0  0  0  # atno 4297 bound_to 1298
    4.4105  -10.1239    4.8561 LP  0  0  0  0  0  0  0  0  0  0  0  0  # atno 4298 bound_to 1298
    1.6660   -7.9368    7.1974 LP  0  0  0  0  0  0  0  0  0  0  0  0  # atno 4299 bound_to 2456
    0.3316   -8.7935    7.5874 LP  0  0  0  0  0  0  0  0  0  0  0  0  # atno 4300 bound_to 2456
    2.6647   -7.8700    4.4374 LP  0  0  0  0  0  0  0  0  0  0  0  0  # atno 4301 bound_to 2510
    2.6018   -9.2578    5.2957 LP  0  0  0  0  0  0  0  0  0  0  0  0  # atno 4302 bound_to 2510
   -3.0134  -17.3677   14.8652 LP  0  0  0  0  0  0  0  0  0  0  0  0  # atno 4306 bound_to 3712
   -3.5435  -16.6552   13.4948 LP  0  0  0  0  0  0  0  0  0  0  0  0  # atno 4307 bound_to 3712
    2.8221  -20.0261    8.1622 LP  0  0  0  0  0  0  0  0  0  0  0  0  # atno 4314 bound_to 3832
    2.5928  -21.1574    9.3172 LP  0  0  0  0  0  0  0  0  0  0  0  0  # atno 4315 bound_to 3832
   -5.4927  -22.3796   10.3939 LP  0  0  0  0  0  0  0  0  0  0  0  0  # atno 4318 bound_to 3762
   -4.4662  -22.1707   11.6466 LP  0  0  0  0  0  0  0  0  0  0  0  0  # atno 4319 bound_to 3762
   -5.0586   -5.4516    9.2878 LP  0  0  0  0  0  0  0  0  0  0  0  0  # atno 4320 bound_to 2467
   -5.0235   -4.8947    7.7531 LP  0  0  0  0  0  0  0  0  0  0  0  0  # atno 4321 bound_to 2467

> <Gold.Score>
     Score     S(PLP)   S(hbond)     S(cho)   S(metal)  DE(clash)   DE(tors)     intcor
     35.53     -29.88       1.99       0.00       0.00       0.00       0.17       0.02

> <Gold.PLP.Fitness>
35.5266

> <Gold.PLP.PLP>
-29.8844

> <Gold.PLP.part.hbond>
-2.0000

> <Gold.PLP.part.metal>
0.0000

> <Gold.PLP.part.buried>
-4.4916

> <Gold.PLP.part.nonpolar>
-23.6935

> <Gold.PLP.part.repulsive>
0.0962

> <Gold.PLP.ligand.clash>
0.0000

> <Gold.PLP.ligand.torsion>
0.1748

> <Gold.PLP.Chemscore.Hbond>
1.9920

> <Gold.PLP.Chemscore.CHOScore>
0.0000

> <Gold.PLP.Chemscore.Metal>
0.0000

> <Gold.Chemscore.Hbonds>
donor molecule, donor type, donor heavy atom, donor atom, acceptor molecule, acceptor atom, score
      P1  H  2305  2313       L1    12  0.99
      P1  H  3712  3721       L1    10  1.00

> <Gold.PLP.Chemscore.Internal.Correction>
0.0159

