#       Name:                EN300-1087079_i001
#       Creating user name   fsindt
#       Creation time:       Wed Mar  1 22:25:09 2023


#       File generated by GOLD software.
#

@<TRIPOS>MOLECULE
EN300-1087079_i001|acide_1|mol2|10295|dock8
    27    27     1
SMALL
USER_CHARGES


@<TRIPOS>ATOM
      1 C1          -2.3849 -10.2229  10.3201 C.3            1 <1>                0.0000
      2 C2          -1.3475 -11.0786  11.0499 C.3            1 <1>                0.0000
      3 C3          -1.3749 -12.5018  10.4892 C.3            1 <1>                0.0000
      4 C4          -0.4033 -13.4207  11.2759 C.3            1 <1>                0.0000
      5 C5          -0.0651 -14.4971  10.2144 C.3            1 <1>                0.0000
      6 N6           0.0046 -13.7608   8.9391 N.am           1 <1>                0.0000
      7 C7          -0.7997 -12.5358   9.0575 C.3            1 <1>                0.0000
      8 C8           0.0702 -11.3272   8.8258 C.2            1 <1>                0.0000
      9 O9          -0.1754 -10.5667   7.9051 O.co2          1 <1>                0.0000
     10 O10          1.0197 -11.1100   9.5592 O.co2          1 <1>               -1.0000
     11 C11          0.6924 -14.1464   7.8461 C.2            1 <1>                0.0000
     12 O12          1.3248 -15.1812   7.8614 O.2            1 <1>                0.0000
     13 C13          0.6757 -13.2919   6.6050 C.3            1 <1>                0.0000
     14 H14         -2.3654  -9.2090  10.7196 H              1 <1>                0.0000
     15 H15         -2.1517 -10.1986   9.2556 H              1 <1>                0.0000
     16 H16         -3.3765 -10.6516  10.4652 H              1 <1>                0.0000
     17 H17         -0.3560 -10.6499  10.9049 H              1 <1>                0.0000
     18 H18         -1.5806 -11.1030  12.1144 H              1 <1>                0.0000
     19 H19         -2.3878 -12.9037  10.5103 H              1 <1>                0.0000
     20 H20          0.4910 -12.8758  11.5783 H              1 <1>                0.0000
     21 H21         -0.8987 -13.8652  12.1391 H              1 <1>                0.0000
     22 H22          0.8956 -14.9612  10.4375 H              1 <1>                0.0000
     23 H23         -0.8514 -15.2509  10.1748 H              1 <1>                0.0000
     24 H24         -1.6127 -12.5546   8.3317 H              1 <1>                0.0000
     25 H25          0.0595 -12.4097   6.7794 H              1 <1>                0.0000
     26 H26          1.6925 -12.9826   6.3631 H              1 <1>                0.0000
     27 H27          0.2629 -13.8650   5.7747 H              1 <1>                0.0000
@<TRIPOS>BOND
    1    1    2 1     
    2    1   14 1     
    3    1   15 1     
    4    1   16 1     
    5    2    3 1     
    6    2   17 1     
    7    2   18 1     
    8    3    4 1     
    9    3    7 1     
   10    3   19 1     
   11    4    5 1     
   12    4   20 1     
   13    4   21 1     
   14    5    6 1     
   15    5   22 1     
   16    5   23 1     
   17    6    7 1     
   18    6   11 am    
   19    7    8 1     
   20    7   24 1     
   21    8    9 ar    
   22    8   10 ar    
   23   11   12 2     
   24   11   13 1     
   25   13   25 1     
   26   13   26 1     
   27   13   27 1     
@<TRIPOS>SUBSTRUCTURE
      1 ****           1
@<TRIPOS>COMMENT
> <Gold.Version>
2022.2.0

> <Gold.Id.Protein>
3pbl|protein|mol2

> <Gold.Protein.RotatedTorsions>
[ 1303 1298 1297 1294 ] final  -15.24 input  179.99 | X-H torsion
[ 2461 2456 2455 2452 ] final -123.89 input   30.03 | X-H torsion
[ 2515 2510 2509 2506 ] final   35.69 input  -89.99 | X-H torsion
[ 3721 3712 3711 3710 ] final   24.81 input -179.91 | X-H torsion
[ 3841 3832 3831 3830 ] final   88.32 input -179.91 | X-H torsion
[ 3767 3762 3761 3758 ] final  102.60 input  -89.99 | X-H torsion
[ 2472 2467 2466 2463 ] final   13.37 input  -89.97 | X-H torsion

> <Gold.Protein.ActiveResidues>
 VAL82   VAL86   LEU89   PHE106  VAL107  ASP110  VAL111  MET112  CYS114  THR115 
 CYS181  SER182  ILE183  PHE188  VAL189  ILE190  SER192  SER193  SER196  TRP342 
 PHE345  PHE346  HIS349  VAL350  TYR365  THR369  GLY372  TYR373 

> <Gold.Protein.RotatedAtoms>
    3.3347   -9.6586    3.9286 H   0  0  0  0  0  0  0  0  0  0  0  0  # atno 1303 bound_to 1298
    0.6194   -9.1986    8.0926 H   0  0  0  0  0  0  0  0  0  0  0  0  # atno 2461 bound_to 2456
   -3.9411   -4.8338    7.9123 H   0  0  0  0  0  0  0  0  0  0  0  0  # atno 2472 bound_to 2467
    2.2938   -7.4118    5.0827 H   0  0  0  0  0  0  0  0  0  0  0  0  # atno 2515 bound_to 2510
   -2.4749  -18.0341   13.8786 H   0  0  0  0  0  0  0  0  0  0  0  0  # atno 3721 bound_to 3712
   -4.0712  -23.2923   10.6647 H   0  0  0  0  0  0  0  0  0  0  0  0  # atno 3767 bound_to 3762
    2.8243  -20.9278    9.2800 H   0  0  0  0  0  0  0  0  0  0  0  0  # atno 3841 bound_to 3832
    4.4353   -8.4935    4.2407 LP  0  0  0  0  0  0  0  0  0  0  0  0  # atno 4297 bound_to 1298
    4.5925   -9.9691    4.9225 LP  0  0  0  0  0  0  0  0  0  0  0  0  # atno 4298 bound_to 1298
    2.1371   -8.5993    8.0237 LP  0  0  0  0  0  0  0  0  0  0  0  0  # atno 4299 bound_to 2456
    0.9810   -8.0105    7.0320 LP  0  0  0  0  0  0  0  0  0  0  0  0  # atno 4300 bound_to 2456
    2.8298   -8.8597    4.5516 LP  0  0  0  0  0  0  0  0  0  0  0  0  # atno 4301 bound_to 2510
    2.1732   -8.7282    6.0410 LP  0  0  0  0  0  0  0  0  0  0  0  0  # atno 4302 bound_to 2510
   -3.2732  -16.9346   14.7339 LP  0  0  0  0  0  0  0  0  0  0  0  0  # atno 4306 bound_to 3712
   -3.3972  -16.9709   13.1061 LP  0  0  0  0  0  0  0  0  0  0  0  0  # atno 4307 bound_to 3712
    1.3941  -20.2031    9.2050 LP  0  0  0  0  0  0  0  0  0  0  0  0  # atno 4314 bound_to 3832
    2.5727  -19.8275    8.1389 LP  0  0  0  0  0  0  0  0  0  0  0  0  # atno 4315 bound_to 3832
   -5.4495  -22.5024   10.2865 LP  0  0  0  0  0  0  0  0  0  0  0  0  # atno 4318 bound_to 3762
   -4.6063  -22.0806   11.6198 LP  0  0  0  0  0  0  0  0  0  0  0  0  # atno 4319 bound_to 3762
   -4.2872   -5.4077    9.4014 LP  0  0  0  0  0  0  0  0  0  0  0  0  # atno 4320 bound_to 2467
   -5.4885   -5.1520    8.3253 LP  0  0  0  0  0  0  0  0  0  0  0  0  # atno 4321 bound_to 2467

> <Gold.Score>
     Score     S(PLP)   S(hbond)     S(cho)   S(metal)  DE(clash)   DE(tors)     intcor
     42.11     -39.20       0.99       0.00       0.00       0.00       0.04       0.02

> <Gold.PLP.Fitness>
42.1069

> <Gold.PLP.PLP>
-39.2000

> <Gold.PLP.part.hbond>
-1.6359

> <Gold.PLP.part.metal>
0.0000

> <Gold.PLP.part.buried>
-3.1199

> <Gold.PLP.part.nonpolar>
-35.6285

> <Gold.PLP.part.repulsive>
0.2627

> <Gold.PLP.ligand.clash>
0.0000

> <Gold.PLP.ligand.torsion>
0.0413

> <Gold.PLP.Chemscore.Hbond>
0.9913

> <Gold.PLP.Chemscore.CHOScore>
0.0000

> <Gold.PLP.Chemscore.Metal>
0.0000

> <Gold.Chemscore.Hbonds>
donor molecule, donor type, donor heavy atom, donor atom, acceptor molecule, acceptor atom, score
      P1  H  2456  2461       L1     9  0.99

> <Gold.PLP.Chemscore.Internal.Correction>
0.0159

