#       Name:                EN300-1087079_i001
#       Creating user name   fsindt
#       Creation time:       Wed Mar  1 22:25:12 2023


#       File generated by GOLD software.
#

@<TRIPOS>MOLECULE
EN300-1087079_i001|acide_1|mol2|10295|dock15
    27    27     1
SMALL
USER_CHARGES


@<TRIPOS>ATOM
      1 C1           1.9346 -14.9899  10.6005 C.3            1 <1>                0.0000
      2 C2           1.3988 -13.8761   9.6987 C.3            1 <1>                0.0000
      3 C3           0.6285 -12.8608  10.5453 C.3            1 <1>                0.0000
      4 C4          -0.7188 -13.4589  11.0292 C.3            1 <1>                0.0000
      5 C5          -1.5750 -12.1823  11.2207 C.3            1 <1>                0.0000
      6 N6          -1.1705 -11.2880  10.1207 N.am           1 <1>                0.0000
      7 C7           0.1842 -11.6586   9.6858 C.3            1 <1>                0.0000
      8 C8           0.1664 -12.0479   8.2300 C.2            1 <1>                0.0000
      9 O9          -0.4849 -13.0115   7.8645 O.co2          1 <1>                0.0000
     10 O10          0.8036 -11.3992   7.4178 O.co2          1 <1>               -1.0000
     11 C11         -1.9190 -10.2956   9.5996 C.2            1 <1>                0.0000
     12 O12         -1.4829  -9.6201   8.6917 O.2            1 <1>                0.0000
     13 C13         -3.2975 -10.0255  10.1451 C.3            1 <1>                0.0000
     14 H14          2.4833 -15.7133   9.9974 H              1 <1>                0.0000
     15 H15          2.6006 -14.5620  11.3498 H              1 <1>                0.0000
     16 H16          1.1017 -15.4880  11.0967 H              1 <1>                0.0000
     17 H17          2.2317 -13.3781   9.2025 H              1 <1>                0.0000
     18 H18          0.7328 -14.3040   8.9494 H              1 <1>                0.0000
     19 H19          1.2305 -12.5312  11.3922 H              1 <1>                0.0000
     20 H20         -1.1524 -14.1098  10.2699 H              1 <1>                0.0000
     21 H21         -0.5938 -13.9908  11.9724 H              1 <1>                0.0000
     22 H22         -2.6356 -12.4218  11.1445 H              1 <1>                0.0000
     23 H23         -1.3577 -11.7209  12.1841 H              1 <1>                0.0000
     24 H24          0.8648 -10.8212   9.8394 H              1 <1>                0.0000
     25 H25         -3.5138 -10.7278  10.9502 H              1 <1>                0.0000
     26 H26         -3.3429  -9.0066  10.5297 H              1 <1>                0.0000
     27 H27         -4.0331 -10.1468   9.3498 H              1 <1>                0.0000
@<TRIPOS>BOND
    1    1    2 1     
    2    1   14 1     
    3    1   15 1     
    4    1   16 1     
    5    2    3 1     
    6    2   17 1     
    7    2   18 1     
    8    3    4 1     
    9    3    7 1     
   10    3   19 1     
   11    4    5 1     
   12    4   20 1     
   13    4   21 1     
   14    5    6 1     
   15    5   22 1     
   16    5   23 1     
   17    6    7 1     
   18    6   11 am    
   19    7    8 1     
   20    7   24 1     
   21    8    9 ar    
   22    8   10 ar    
   23   11   12 2     
   24   11   13 1     
   25   13   25 1     
   26   13   26 1     
   27   13   27 1     
@<TRIPOS>SUBSTRUCTURE
      1 ****           1
@<TRIPOS>COMMENT
> <Gold.Version>
2022.2.0

> <Gold.Id.Protein>
3pbl|protein|mol2

> <Gold.Protein.RotatedTorsions>
[ 1303 1298 1297 1294 ] final -111.24 input  179.99 | X-H torsion
[ 2461 2456 2455 2452 ] final -104.78 input   30.03 | X-H torsion
[ 2515 2510 2509 2506 ] final   -1.78 input  -89.99 | X-H torsion
[ 3721 3712 3711 3710 ] final   -6.72 input -179.91 | X-H torsion
[ 3841 3832 3831 3830 ] final   65.97 input -179.91 | X-H torsion
[ 3767 3762 3761 3758 ] final  124.43 input  -89.99 | X-H torsion
[ 2472 2467 2466 2463 ] final  -29.24 input  -89.97 | X-H torsion

> <Gold.Protein.ActiveResidues>
 VAL82   VAL86   LEU89   PHE106  VAL107  ASP110  VAL111  MET112  CYS114  THR115 
 CYS181  SER182  ILE183  PHE188  VAL189  ILE190  SER192  SER193  SER196  TRP342 
 PHE345  PHE346  HIS349  VAL350  TYR365  THR369  GLY372  TYR373 

> <Gold.Protein.RotatedAtoms>
    4.1124   -8.4969    4.0182 H   0  0  0  0  0  0  0  0  0  0  0  0  # atno 1303 bound_to 1298
    0.4354   -9.0545    7.8844 H   0  0  0  0  0  0  0  0  0  0  0  0  # atno 2461 bound_to 2456
   -3.6381   -5.0123    8.5003 H   0  0  0  0  0  0  0  0  0  0  0  0  # atno 2472 bound_to 2467
    2.5530   -7.6481    4.5891 H   0  0  0  0  0  0  0  0  0  0  0  0  # atno 2515 bound_to 2510
   -2.5039  -17.9131   14.3325 H   0  0  0  0  0  0  0  0  0  0  0  0  # atno 3721 bound_to 3712
   -3.9359  -23.1539   10.9648 H   0  0  0  0  0  0  0  0  0  0  0  0  # atno 3767 bound_to 3762
    2.5509  -20.9539    9.4727 H   0  0  0  0  0  0  0  0  0  0  0  0  # atno 3841 bound_to 3832
    4.8101   -9.6440    4.9476 LP  0  0  0  0  0  0  0  0  0  0  0  0  # atno 4297 bound_to 1298
    3.4397   -9.9808    4.1259 LP  0  0  0  0  0  0  0  0  0  0  0  0  # atno 4298 bound_to 1298
    2.0197   -8.8239    8.2071 LP  0  0  0  0  0  0  0  0  0  0  0  0  # atno 4299 bound_to 2456
    1.2824   -7.9299    7.0566 LP  0  0  0  0  0  0  0  0  0  0  0  0  # atno 4300 bound_to 2456
    2.7055   -9.2135    5.0273 LP  0  0  0  0  0  0  0  0  0  0  0  0  # atno 4301 bound_to 2510
    2.0382   -8.1379    6.0591 LP  0  0  0  0  0  0  0  0  0  0  0  0  # atno 4302 bound_to 2510
   -3.4773  -16.6365   14.3596 LP  0  0  0  0  0  0  0  0  0  0  0  0  # atno 4306 bound_to 3712
   -3.1596  -17.4089   12.9564 LP  0  0  0  0  0  0  0  0  0  0  0  0  # atno 4307 bound_to 3712
    1.4252  -19.9374    8.9478 LP  0  0  0  0  0  0  0  0  0  0  0  0  # atno 4314 bound_to 3832
    2.8574  -20.0629    8.1734 LP  0  0  0  0  0  0  0  0  0  0  0  0  # atno 4315 bound_to 3832
   -5.2816  -22.7714   10.1225 LP  0  0  0  0  0  0  0  0  0  0  0  0  # atno 4318 bound_to 3762
   -4.9096  -21.9499   11.4838 LP  0  0  0  0  0  0  0  0  0  0  0  0  # atno 4319 bound_to 3762
   -4.9673   -5.4593    9.3370 LP  0  0  0  0  0  0  0  0  0  0  0  0  # atno 4320 bound_to 2467
   -5.1113   -4.9219    7.8018 LP  0  0  0  0  0  0  0  0  0  0  0  0  # atno 4321 bound_to 2467

> <Gold.Score>
     Score     S(PLP)   S(hbond)     S(cho)   S(metal)  DE(clash)   DE(tors)     intcor
     37.39     -35.24       0.76       0.00       0.00       0.00       0.07       0.02

> <Gold.PLP.Fitness>
37.3903

> <Gold.PLP.PLP>
-35.2419

> <Gold.PLP.part.hbond>
-2.6954

> <Gold.PLP.part.metal>
0.0000

> <Gold.PLP.part.buried>
1.5622

> <Gold.PLP.part.nonpolar>
-35.4148

> <Gold.PLP.part.repulsive>
0.1147

> <Gold.PLP.ligand.clash>
0.0000

> <Gold.PLP.ligand.torsion>
0.0705

> <Gold.PLP.Chemscore.Hbond>
0.7579

> <Gold.PLP.Chemscore.CHOScore>
0.0000

> <Gold.PLP.Chemscore.Metal>
0.0000

> <Gold.Chemscore.Hbonds>
donor molecule, donor type, donor heavy atom, donor atom, acceptor molecule, acceptor atom, score
      P1  H  2456  2461       L1    12  0.76

> <Gold.PLP.Chemscore.Internal.Correction>
0.0159

