#       Name:                EN300-1087079_i001
#       Creating user name   fsindt
#       Creation time:       Wed Mar  1 22:25:10 2023


#       File generated by GOLD software.
#

@<TRIPOS>MOLECULE
EN300-1087079_i001|acide_1|mol2|10295|dock10
    27    27     1
SMALL
USER_CHARGES


@<TRIPOS>ATOM
      1 C1           0.8422 -23.0958  14.3820 C.3            1 <1>                0.0000
      2 C2           1.2314 -21.8353  13.6071 C.3            1 <1>                0.0000
      3 C3           1.3796 -20.6639  14.5801 C.3            1 <1>                0.0000
      4 C4           0.0224 -20.3379  15.2576 C.3            1 <1>                0.0000
      5 C5           0.1988 -18.8378  15.6015 C.3            1 <1>                0.0000
      6 N6           0.9551 -18.2769  14.4671 N.am           1 <1>                0.0000
      7 C7           1.7083 -19.3614  13.8205 C.3            1 <1>                0.0000
      8 C8           1.2879 -19.4886  12.3789 C.2            1 <1>                0.0000
      9 O9           0.2474 -18.9786  12.0000 O.co2          1 <1>                0.0000
     10 O10          1.9884 -20.1018  11.5915 O.co2          1 <1>               -1.0000
     11 C11          0.9552 -16.9843  14.0855 C.2            1 <1>                0.0000
     12 O12          0.2927 -16.1719  14.6955 O.2            1 <1>                0.0000
     13 C13          1.7785 -16.5483  12.9011 C.3            1 <1>                0.0000
     14 H14          0.7366 -23.9303  13.6888 H              1 <1>                0.0000
     15 H15          1.6171 -23.3265  15.1131 H              1 <1>                0.0000
     16 H16         -0.1042 -22.9286  14.8961 H              1 <1>                0.0000
     17 H17          2.1777 -22.0025  13.0929 H              1 <1>                0.0000
     18 H18          0.4565 -21.6044  12.8760 H              1 <1>                0.0000
     19 H19          2.1421 -20.8800  15.3284 H              1 <1>                0.0000
     20 H20         -0.8057 -20.4849  14.5642 H              1 <1>                0.0000
     21 H21         -0.1161 -20.9321  16.1608 H              1 <1>                0.0000
     22 H22         -0.7729 -18.3514  15.6872 H              1 <1>                0.0000
     23 H23          0.7635 -18.7246  16.5269 H              1 <1>                0.0000
     24 H24          2.7773 -19.1571  13.8804 H              1 <1>                0.0000
     25 H25          2.3012 -17.4098  12.4850 H              1 <1>                0.0000
     26 H26          1.1245 -16.1189  12.1422 H              1 <1>                0.0000
     27 H27          2.5057 -15.8011  13.2192 H              1 <1>                0.0000
@<TRIPOS>BOND
    1    1    2 1     
    2    1   14 1     
    3    1   15 1     
    4    1   16 1     
    5    2    3 1     
    6    2   17 1     
    7    2   18 1     
    8    3    4 1     
    9    3    7 1     
   10    3   19 1     
   11    4    5 1     
   12    4   20 1     
   13    4   21 1     
   14    5    6 1     
   15    5   22 1     
   16    5   23 1     
   17    6    7 1     
   18    6   11 am    
   19    7    8 1     
   20    7   24 1     
   21    8    9 ar    
   22    8   10 ar    
   23   11   12 2     
   24   11   13 1     
   25   13   25 1     
   26   13   26 1     
   27   13   27 1     
@<TRIPOS>SUBSTRUCTURE
      1 ****           1
@<TRIPOS>COMMENT
> <Gold.Version>
2022.2.0

> <Gold.Id.Protein>
3pbl|protein|mol2

> <Gold.Protein.RotatedTorsions>
[ 1303 1298 1297 1294 ] final  107.69 input  179.99 | X-H torsion
[ 2461 2456 2455 2452 ] final  122.77 input   30.03 | X-H torsion
[ 2515 2510 2509 2506 ] final   70.37 input  -89.99 | X-H torsion
[ 3721 3712 3711 3710 ] final   27.43 input -179.91 | X-H torsion
[ 3841 3832 3831 3830 ] final   -3.39 input -179.91 | X-H torsion
[ 3767 3762 3761 3758 ] final   55.82 input  -89.99 | X-H torsion
[ 2472 2467 2466 2463 ] final  -96.60 input  -89.97 | X-H torsion

> <Gold.Protein.ActiveResidues>
 VAL82   VAL86   LEU89   PHE106  VAL107  ASP110  VAL111  MET112  CYS114  THR115 
 CYS181  SER182  ILE183  PHE188  VAL189  ILE190  SER192  SER193  SER196  TRP342 
 PHE345  PHE346  HIS349  VAL350  TYR365  THR369  GLY372  TYR373 

> <Gold.Protein.RotatedAtoms>
    4.6239   -9.9336    4.9312 H   0  0  0  0  0  0  0  0  0  0  0  0  # atno 1303 bound_to 1298
    2.1072   -8.6788    8.0927 H   0  0  0  0  0  0  0  0  0  0  0  0  # atno 2461 bound_to 2456
   -4.1359   -5.3721    9.3466 H   0  0  0  0  0  0  0  0  0  0  0  0  # atno 2472 bound_to 2467
    2.1028   -7.5322    5.5970 H   0  0  0  0  0  0  0  0  0  0  0  0  # atno 2515 bound_to 2510
   -2.4783  -18.0342   13.8392 H   0  0  0  0  0  0  0  0  0  0  0  0  # atno 3721 bound_to 3712
   -4.6270  -23.2594   10.1642 H   0  0  0  0  0  0  0  0  0  0  0  0  # atno 3767 bound_to 3762
    1.7085  -20.4477    9.5410 H   0  0  0  0  0  0  0  0  0  0  0  0  # atno 3841 bound_to 3832
    3.3404   -9.7020    3.9487 LP  0  0  0  0  0  0  0  0  0  0  0  0  # atno 4297 bound_to 1298
    4.3977   -8.4855    4.2114 LP  0  0  0  0  0  0  0  0  0  0  0  0  # atno 4298 bound_to 1298
    1.0844   -7.9744    7.0320 LP  0  0  0  0  0  0  0  0  0  0  0  0  # atno 4299 bound_to 2456
    0.5465   -9.1550    8.0236 LP  0  0  0  0  0  0  0  0  0  0  0  0  # atno 4300 bound_to 2456
    2.7988   -8.3336    4.3564 LP  0  0  0  0  0  0  0  0  0  0  0  0  # atno 4301 bound_to 2510
    2.3953   -9.1337    5.7216 LP  0  0  0  0  0  0  0  0  0  0  0  0  # atno 4302 bound_to 2510
   -3.2528  -16.9670   14.7551 LP  0  0  0  0  0  0  0  0  0  0  0  0  # atno 4306 bound_to 3712
   -3.4136  -16.9385   13.1303 LP  0  0  0  0  0  0  0  0  0  0  0  0  # atno 4307 bound_to 3712
    2.1958  -19.6653    8.2271 LP  0  0  0  0  0  0  0  0  0  0  0  0  # atno 4314 bound_to 3832
    3.0600  -20.9198    8.8152 LP  0  0  0  0  0  0  0  0  0  0  0  0  # atno 4315 bound_to 3832
   -5.4412  -22.0311   10.8679 LP  0  0  0  0  0  0  0  0  0  0  0  0  # atno 4318 bound_to 3762
   -4.0591  -22.5848   11.5387 LP  0  0  0  0  0  0  0  0  0  0  0  0  # atno 4319 bound_to 3762
   -5.5093   -5.2095    8.4785 LP  0  0  0  0  0  0  0  0  0  0  0  0  # atno 4320 bound_to 2467
   -4.0716   -4.8119    7.8142 LP  0  0  0  0  0  0  0  0  0  0  0  0  # atno 4321 bound_to 2467

> <Gold.Score>
     Score     S(PLP)   S(hbond)     S(cho)   S(metal)  DE(clash)   DE(tors)     intcor
     36.49     -31.64       1.94       0.00       0.00       0.00       0.50       0.02

> <Gold.PLP.Fitness>
36.4915

> <Gold.PLP.PLP>
-31.6381

> <Gold.PLP.part.hbond>
-2.0000

> <Gold.PLP.part.metal>
0.0000

> <Gold.PLP.part.buried>
-4.6537

> <Gold.PLP.part.nonpolar>
-24.9609

> <Gold.PLP.part.repulsive>
0.2376

> <Gold.PLP.ligand.clash>
0.0000

> <Gold.PLP.ligand.torsion>
0.4972

> <Gold.PLP.Chemscore.Hbond>
1.9440

> <Gold.PLP.Chemscore.CHOScore>
0.0000

> <Gold.PLP.Chemscore.Metal>
0.0000

> <Gold.Chemscore.Hbonds>
donor molecule, donor type, donor heavy atom, donor atom, acceptor molecule, acceptor atom, score
      P1  H  2305  2313       L1    12  1.00
      P1  H  3832  3841       L1    10  0.94

> <Gold.PLP.Chemscore.Internal.Correction>
0.0159

