#       Name:                EN300-1087079_i001
#       Creating user name   fsindt
#       Creation time:       Wed Mar  1 22:25:13 2023


#       File generated by GOLD software.
#

@<TRIPOS>MOLECULE
EN300-1087079_i001|acide_1|mol2|10295|dock17
    27    27     1
SMALL
USER_CHARGES


@<TRIPOS>ATOM
      1 C1           2.2576 -17.5541  14.9960 C.3            1 <1>                0.0000
      2 C2           1.0322 -16.7930  14.4864 C.3            1 <1>                0.0000
      3 C3           1.0767 -16.7189  12.9588 C.3            1 <1>                0.0000
      4 C4          -0.1250 -15.9031  12.4134 C.3            1 <1>                0.0000
      5 C5          -0.2874 -16.5002  10.9933 C.3            1 <1>                0.0000
      6 N6           0.0076 -17.9359  11.1514 N.am           1 <1>                0.0000
      7 C7           0.8572 -18.1146  12.3380 C.3            1 <1>                0.0000
      8 C8           0.1680 -19.0147  13.3309 C.2            1 <1>                0.0000
      9 O9          -0.9225 -18.7053  13.7798 O.co2          1 <1>                0.0000
     10 O10          0.7010 -20.0524  13.6854 O.co2          1 <1>               -1.0000
     11 C11         -0.4297 -18.9214  10.3428 C.2            1 <1>                0.0000
     12 O12         -0.1237 -20.0728  10.5699 O.2            1 <1>                0.0000
     13 C13         -1.2988 -18.5928   9.1564 C.3            1 <1>                0.0000
     14 H14          2.2259 -17.6068  16.0843 H              1 <1>                0.0000
     15 H15          2.2563 -18.5629  14.5832 H              1 <1>                0.0000
     16 H16          3.1637 -17.0349  14.6837 H              1 <1>                0.0000
     17 H17          0.1262 -17.3121  14.7988 H              1 <1>                0.0000
     18 H18          1.0334 -15.7841  14.8992 H              1 <1>                0.0000
     19 H19          2.0197 -16.2882  12.6224 H              1 <1>                0.0000
     20 H20         -1.0185 -16.0748  13.0138 H              1 <1>                0.0000
     21 H21          0.1135 -14.8406  12.3657 H              1 <1>                0.0000
     22 H22         -1.3079 -16.3596  10.6370 H              1 <1>                0.0000
     23 H23          0.4222 -16.0407  10.3052 H              1 <1>                0.0000
     24 H24          1.8151 -18.5455  12.0465 H              1 <1>                0.0000
     25 H25         -1.4656 -17.5163   9.1153 H              1 <1>                0.0000
     26 H26         -0.8037 -18.9189   8.2418 H              1 <1>                0.0000
     27 H27         -2.2560 -19.1052   9.2541 H              1 <1>                0.0000
@<TRIPOS>BOND
    1    1    2 1     
    2    1   14 1     
    3    1   15 1     
    4    1   16 1     
    5    2    3 1     
    6    2   17 1     
    7    2   18 1     
    8    3    4 1     
    9    3    7 1     
   10    3   19 1     
   11    4    5 1     
   12    4   20 1     
   13    4   21 1     
   14    5    6 1     
   15    5   22 1     
   16    5   23 1     
   17    6    7 1     
   18    6   11 am    
   19    7    8 1     
   20    7   24 1     
   21    8    9 ar    
   22    8   10 ar    
   23   11   12 2     
   24   11   13 1     
   25   13   25 1     
   26   13   26 1     
   27   13   27 1     
@<TRIPOS>SUBSTRUCTURE
      1 ****           1
@<TRIPOS>COMMENT
> <Gold.Version>
2022.2.0

> <Gold.Id.Protein>
3pbl|protein|mol2

> <Gold.Protein.RotatedTorsions>
[ 1303 1298 1297 1294 ] final  -52.23 input  179.99 | X-H torsion
[ 2461 2456 2455 2452 ] final  -84.01 input   30.03 | X-H torsion
[ 2515 2510 2509 2506 ] final -155.36 input  -89.99 | X-H torsion
[ 3721 3712 3711 3710 ] final    5.92 input -179.91 | X-H torsion
[ 3841 3832 3831 3830 ] final  -10.38 input -179.91 | X-H torsion
[ 3767 3762 3761 3758 ] final   10.41 input  -89.99 | X-H torsion
[ 2472 2467 2466 2463 ] final  -74.13 input  -89.97 | X-H torsion

> <Gold.Protein.ActiveResidues>
 VAL82   VAL86   LEU89   PHE106  VAL107  ASP110  VAL111  MET112  CYS114  THR115 
 CYS181  SER182  ILE183  PHE188  VAL189  ILE190  SER192  SER193  SER196  TRP342 
 PHE345  PHE346  HIS349  VAL350  TYR365  THR369  GLY372  TYR373 

> <Gold.Protein.RotatedAtoms>
    3.4382   -9.0888    3.7794 H   0  0  0  0  0  0  0  0  0  0  0  0  # atno 1303 bound_to 1298
    0.3371   -8.8420    7.6379 H   0  0  0  0  0  0  0  0  0  0  0  0  # atno 2461 bound_to 2456
   -3.8517   -5.2661    9.1392 H   0  0  0  0  0  0  0  0  0  0  0  0  # atno 2472 bound_to 2467
    2.4957   -9.2227    5.5297 H   0  0  0  0  0  0  0  0  0  0  0  0  # atno 2515 bound_to 2510
   -2.4767  -17.9874   14.1590 H   0  0  0  0  0  0  0  0  0  0  0  0  # atno 3721 bound_to 3712
   -5.2198  -22.8425   10.0947 H   0  0  0  0  0  0  0  0  0  0  0  0  # atno 3767 bound_to 3762
    1.6576  -20.3655    9.4990 H   0  0  0  0  0  0  0  0  0  0  0  0  # atno 3841 bound_to 3832
    4.8089   -8.7785    4.6109 LP  0  0  0  0  0  0  0  0  0  0  0  0  # atno 4297 bound_to 1298
    4.1153  -10.2541    4.7015 LP  0  0  0  0  0  0  0  0  0  0  0  0  # atno 4298 bound_to 1298
    1.7961   -9.0398    8.3447 LP  0  0  0  0  0  0  0  0  0  0  0  0  # atno 4299 bound_to 2456
    1.6043   -7.9264    7.1655 LP  0  0  0  0  0  0  0  0  0  0  0  0  # atno 4300 bound_to 2456
    2.0552   -7.6705    5.7799 LP  0  0  0  0  0  0  0  0  0  0  0  0  # atno 4301 bound_to 2510
    2.7458   -8.1055    4.3655 LP  0  0  0  0  0  0  0  0  0  0  0  0  # atno 4302 bound_to 2510
   -3.4066  -16.7331   14.5331 LP  0  0  0  0  0  0  0  0  0  0  0  0  # atno 4306 bound_to 3712
   -3.2617  -17.2264   12.9832 LP  0  0  0  0  0  0  0  0  0  0  0  0  # atno 4307 bound_to 3712
    2.3017  -19.6969    8.1898 LP  0  0  0  0  0  0  0  0  0  0  0  0  # atno 4314 bound_to 3832
    3.0129  -20.9832    8.9011 LP  0  0  0  0  0  0  0  0  0  0  0  0  # atno 4315 bound_to 3832
   -4.9894  -21.9306   11.4297 LP  0  0  0  0  0  0  0  0  0  0  0  0  # atno 4318 bound_to 3762
   -3.9183  -23.1021   11.0464 LP  0  0  0  0  0  0  0  0  0  0  0  0  # atno 4319 bound_to 3762
   -5.4524   -5.3270    8.8220 LP  0  0  0  0  0  0  0  0  0  0  0  0  # atno 4320 bound_to 2467
   -4.4127   -4.8004    7.6781 LP  0  0  0  0  0  0  0  0  0  0  0  0  # atno 4321 bound_to 2467

> <Gold.Score>
     Score     S(PLP)   S(hbond)     S(cho)   S(metal)  DE(clash)   DE(tors)     intcor
     34.48     -28.51       2.00       0.00       0.00       0.00       0.02       0.02

> <Gold.PLP.Fitness>
34.4832

> <Gold.PLP.PLP>
-28.5145

> <Gold.PLP.part.hbond>
-2.0000

> <Gold.PLP.part.metal>
0.0000

> <Gold.PLP.part.buried>
-2.4732

> <Gold.PLP.part.nonpolar>
-24.9270

> <Gold.PLP.part.repulsive>
0.0663

> <Gold.PLP.ligand.clash>
0.0000

> <Gold.PLP.ligand.torsion>
0.0235

> <Gold.PLP.Chemscore.Hbond>
2.0000

> <Gold.PLP.Chemscore.CHOScore>
0.0000

> <Gold.PLP.Chemscore.Metal>
0.0000

> <Gold.Chemscore.Hbonds>
donor molecule, donor type, donor heavy atom, donor atom, acceptor molecule, acceptor atom, score
      P1  H  3712  3721       L1     9  1.00
      P1  H  3832  3841       L1    12  1.00

> <Gold.PLP.Chemscore.Internal.Correction>
0.0159

