#       Name:                EN300-1087079_i001
#       Creating user name   fsindt
#       Creation time:       Wed Mar  1 22:25:08 2023


#       File generated by GOLD software.
#

@<TRIPOS>MOLECULE
EN300-1087079_i001|acide_1|mol2|10295|dock6
    27    27     1
SMALL
USER_CHARGES


@<TRIPOS>ATOM
      1 C1          -3.4310 -10.3003  10.5012 C.3            1 <1>                0.0000
      2 C2          -2.2088 -10.8770  11.2186 C.3            1 <1>                0.0000
      3 C3          -1.9369 -12.2924  10.7052 C.3            1 <1>                0.0000
      4 C4          -0.8697 -12.9990  11.5823 C.3            1 <1>                0.0000
      5 C5          -0.2685 -14.0166  10.5810 C.3            1 <1>                0.0000
      6 N6          -0.2476 -13.3074   9.2887 N.am           1 <1>                0.0000
      7 C7          -1.2686 -12.2499   9.3148 C.3            1 <1>                0.0000
      8 C8          -0.6208 -10.9066   9.0983 C.2            1 <1>                0.0000
      9 O9          -1.3028  -9.9425   8.7953 O.co2          1 <1>                0.0000
     10 O10          0.5855 -10.7840   9.2261 O.co2          1 <1>               -1.0000
     11 C11          0.5723 -13.5825   8.2550 C.2            1 <1>                0.0000
     12 O12          0.5015 -12.9304   7.2348 O.2            1 <1>                0.0000
     13 C13          1.5768 -14.7001   8.3666 C.3            1 <1>                0.0000
     14 H14         -3.6247  -9.2920  10.8669 H              1 <1>                0.0000
     15 H15         -3.2405 -10.2674   9.4285 H              1 <1>                0.0000
     16 H16         -4.2983 -10.9308  10.6971 H              1 <1>                0.0000
     17 H17         -1.3416 -10.2466  11.0228 H              1 <1>                0.0000
     18 H18         -2.3992 -10.9100  12.2913 H              1 <1>                0.0000
     19 H19         -2.8582 -12.8740  10.6756 H              1 <1>                0.0000
     20 H20         -0.1131 -12.2919  11.9223 H              1 <1>                0.0000
     21 H21         -1.3333 -13.5089  12.4267 H              1 <1>                0.0000
     22 H22          0.7434 -14.2904  10.8799 H              1 <1>                0.0000
     23 H23         -0.8990 -14.9035  10.5169 H              1 <1>                0.0000
     24 H24         -2.0129 -12.4340   8.5400 H              1 <1>                0.0000
     25 H25          1.4928 -15.1676   9.3478 H              1 <1>                0.0000
     26 H26          1.3820 -15.4425   7.5926 H              1 <1>                0.0000
     27 H27          2.5825 -14.2988   8.2403 H              1 <1>                0.0000
@<TRIPOS>BOND
    1    1    2 1     
    2    1   14 1     
    3    1   15 1     
    4    1   16 1     
    5    2    3 1     
    6    2   17 1     
    7    2   18 1     
    8    3    4 1     
    9    3    7 1     
   10    3   19 1     
   11    4    5 1     
   12    4   20 1     
   13    4   21 1     
   14    5    6 1     
   15    5   22 1     
   16    5   23 1     
   17    6    7 1     
   18    6   11 am    
   19    7    8 1     
   20    7   24 1     
   21    8    9 ar    
   22    8   10 ar    
   23   11   12 2     
   24   11   13 1     
   25   13   25 1     
   26   13   26 1     
   27   13   27 1     
@<TRIPOS>SUBSTRUCTURE
      1 ****           1
@<TRIPOS>COMMENT
> <Gold.Version>
2022.2.0

> <Gold.Id.Protein>
3pbl|protein|mol2

> <Gold.Protein.RotatedTorsions>
[ 1303 1298 1297 1294 ] final   65.53 input  179.99 | X-H torsion
[ 2461 2456 2455 2452 ] final -164.98 input   30.03 | X-H torsion
[ 2515 2510 2509 2506 ] final  110.80 input  -89.99 | X-H torsion
[ 3721 3712 3711 3710 ] final   66.86 input -179.91 | X-H torsion
[ 3841 3832 3831 3830 ] final   91.96 input -179.91 | X-H torsion
[ 3767 3762 3761 3758 ] final   25.45 input  -89.99 | X-H torsion
[ 2472 2467 2466 2463 ] final -162.80 input  -89.97 | X-H torsion

> <Gold.Protein.ActiveResidues>
 VAL82   VAL86   LEU89   PHE106  VAL107  ASP110  VAL111  MET112  CYS114  THR115 
 CYS181  SER182  ILE183  PHE188  VAL189  ILE190  SER192  SER193  SER196  TRP342 
 PHE345  PHE346  HIS349  VAL350  TYR365  THR369  GLY372  TYR373 

> <Gold.Protein.RotatedAtoms>
    4.0840  -10.2601    4.6827 H   0  0  0  0  0  0  0  0  0  0  0  0  # atno 1303 bound_to 1298
    1.2126   -9.2753    8.3763 H   0  0  0  0  0  0  0  0  0  0  0  0  # atno 2461 bound_to 2456
   -5.1556   -5.4387    9.2202 H   0  0  0  0  0  0  0  0  0  0  0  0  # atno 2472 bound_to 2467
    2.0305   -8.0229    6.0192 H   0  0  0  0  0  0  0  0  0  0  0  0  # atno 2515 bound_to 2510
   -2.6295  -17.8534   13.3043 H   0  0  0  0  0  0  0  0  0  0  0  0  # atno 3721 bound_to 3712
   -5.0418  -23.0106   10.0634 H   0  0  0  0  0  0  0  0  0  0  0  0  # atno 3767 bound_to 3762
    2.8630  -20.9138    9.2435 H   0  0  0  0  0  0  0  0  0  0  0  0  # atno 3841 bound_to 3832
    3.4546   -9.0557    3.7773 LP  0  0  0  0  0  0  0  0  0  0  0  0  # atno 4297 bound_to 1298
    4.8236   -8.8052    4.6315 LP  0  0  0  0  0  0  0  0  0  0  0  0  # atno 4298 bound_to 1298
    2.0547   -8.1493    7.5454 LP  0  0  0  0  0  0  0  0  0  0  0  0  # atno 4299 bound_to 2456
    0.4705   -8.3838    7.2266 LP  0  0  0  0  0  0  0  0  0  0  0  0  # atno 4300 bound_to 2456
    2.6016   -7.7337    4.5172 LP  0  0  0  0  0  0  0  0  0  0  0  0  # atno 4301 bound_to 2510
    2.6649   -9.2426    5.1384 LP  0  0  0  0  0  0  0  0  0  0  0  0  # atno 4302 bound_to 2510
   -2.9287  -17.5185   14.8458 LP  0  0  0  0  0  0  0  0  0  0  0  0  # atno 4306 bound_to 3712
   -3.5631  -16.5958   13.6572 LP  0  0  0  0  0  0  0  0  0  0  0  0  # atno 4307 bound_to 3712
    1.4015  -20.2502    9.2426 LP  0  0  0  0  0  0  0  0  0  0  0  0  # atno 4314 bound_to 3832
    2.5206  -19.7965    8.1434 LP  0  0  0  0  0  0  0  0  0  0  0  0  # atno 4315 bound_to 3832
   -5.1749  -21.9156   11.2676 LP  0  0  0  0  0  0  0  0  0  0  0  0  # atno 4318 bound_to 3762
   -3.9108  -22.9490   11.2398 LP  0  0  0  0  0  0  0  0  0  0  0  0  # atno 4319 bound_to 3762
   -4.9166   -4.8671    7.7094 LP  0  0  0  0  0  0  0  0  0  0  0  0  # atno 4320 bound_to 2467
   -3.6448   -5.0877    8.7097 LP  0  0  0  0  0  0  0  0  0  0  0  0  # atno 4321 bound_to 2467

> <Gold.Score>
     Score     S(PLP)   S(hbond)     S(cho)   S(metal)  DE(clash)   DE(tors)     intcor
     40.91     -38.99       1.00       0.00       0.00       0.00       0.55       0.02

> <Gold.PLP.Fitness>
40.9094

> <Gold.PLP.PLP>
-38.9943

> <Gold.PLP.part.hbond>
-2.0000

> <Gold.PLP.part.metal>
0.0000

> <Gold.PLP.part.buried>
-2.0852

> <Gold.PLP.part.nonpolar>
-36.2590

> <Gold.PLP.part.repulsive>
0.0842

> <Gold.PLP.ligand.clash>
0.0000

> <Gold.PLP.ligand.torsion>
0.5504

> <Gold.PLP.Chemscore.Hbond>
1.0000

> <Gold.PLP.Chemscore.CHOScore>
0.0000

> <Gold.PLP.Chemscore.Metal>
0.0000

> <Gold.Chemscore.Hbonds>
donor molecule, donor type, donor heavy atom, donor atom, acceptor molecule, acceptor atom, score
      P1  H  2456  2461       L1    10  1.00

> <Gold.PLP.Chemscore.Internal.Correction>
0.0159

