#       Name:                EN300-1087079_i001
#       Creating user name   fsindt
#       Creation time:       Wed Mar  1 22:25:06 2023


#       File generated by GOLD software.
#

@<TRIPOS>MOLECULE
EN300-1087079_i001|acide_1|mol2|10295|dock3
    27    27     1
SMALL
USER_CHARGES


@<TRIPOS>ATOM
      1 C1           1.0818 -22.5263  13.6966 C.3            1 <1>                0.0000
      2 C2           0.8385 -21.2511  12.8869 C.3            1 <1>                0.0000
      3 C3           1.3993 -20.0486  13.6488 C.3            1 <1>                0.0000
      4 C4           0.6144 -19.8194  14.9674 C.3            1 <1>                0.0000
      5 C5           0.8268 -18.3021  15.1961 C.3            1 <1>                0.0000
      6 N6           0.7885 -17.7080  13.8473 N.am           1 <1>                0.0000
      7 C7           1.1498 -18.7420  12.8665 C.3            1 <1>                0.0000
      8 C8           0.0201 -18.9377  11.8885 C.2            1 <1>                0.0000
      9 O9          -1.0946 -18.5208  12.1532 O.co2          1 <1>                0.0000
     10 O10          0.2208 -19.5132  10.8325 O.co2          1 <1>               -1.0000
     11 C11          0.4736 -16.4293  13.5609 C.2            1 <1>                0.0000
     12 O12          0.1899 -15.6599  14.4545 O.2            1 <1>                0.0000
     13 C13          0.4739 -15.9554  12.1304 C.3            1 <1>                0.0000
     14 H14          0.6823 -23.3830  13.1538 H              1 <1>                0.0000
     15 H15          2.1526 -22.6605  13.8499 H              1 <1>                0.0000
     16 H16          0.5839 -22.4439  14.6627 H              1 <1>                0.0000
     17 H17          1.3363 -21.3335  11.9209 H              1 <1>                0.0000
     18 H18         -0.2323 -21.1168  12.7336 H              1 <1>                0.0000
     19 H19          2.4618 -20.1833  13.8510 H              1 <1>                0.0000
     20 H20         -0.4429 -20.0506  14.8378 H              1 <1>                0.0000
     21 H21          1.0429 -20.4013  15.7834 H              1 <1>                0.0000
     22 H22          0.0252 -17.8954  15.8126 H              1 <1>                0.0000
     23 H23          1.7949 -18.1207  15.6630 H              1 <1>                0.0000
     24 H24          2.0557 -18.4489  12.3358 H              1 <1>                0.0000
     25 H25          0.7514 -16.7806  11.4744 H              1 <1>                0.0000
     26 H26         -0.5217 -15.5995  11.8653 H              1 <1>                0.0000
     27 H27          1.1923 -15.1435  12.0167 H              1 <1>                0.0000
@<TRIPOS>BOND
    1    1    2 1     
    2    1   14 1     
    3    1   15 1     
    4    1   16 1     
    5    2    3 1     
    6    2   17 1     
    7    2   18 1     
    8    3    4 1     
    9    3    7 1     
   10    3   19 1     
   11    4    5 1     
   12    4   20 1     
   13    4   21 1     
   14    5    6 1     
   15    5   22 1     
   16    5   23 1     
   17    6    7 1     
   18    6   11 am    
   19    7    8 1     
   20    7   24 1     
   21    8    9 ar    
   22    8   10 ar    
   23   11   12 2     
   24   11   13 1     
   25   13   25 1     
   26   13   26 1     
   27   13   27 1     
@<TRIPOS>SUBSTRUCTURE
      1 ****           1
@<TRIPOS>COMMENT
> <Gold.Version>
2022.2.0

> <Gold.Id.Protein>
3pbl|protein|mol2

> <Gold.Protein.RotatedTorsions>
[ 1303 1298 1297 1294 ] final   48.93 input  179.99 | X-H torsion
[ 2461 2456 2455 2452 ] final   -9.81 input   30.03 | X-H torsion
[ 2515 2510 2509 2506 ] final  159.23 input  -89.99 | X-H torsion
[ 3721 3712 3711 3710 ] final   73.34 input -179.91 | X-H torsion
[ 3841 3832 3831 3830 ] final  -25.71 input -179.91 | X-H torsion
[ 3767 3762 3761 3758 ] final   51.45 input  -89.99 | X-H torsion
[ 2472 2467 2466 2463 ] final   17.48 input  -89.97 | X-H torsion

> <Gold.Protein.ActiveResidues>
 VAL82   VAL86   LEU89   PHE106  VAL107  ASP110  VAL111  MET112  CYS114  THR115 
 CYS181  SER182  ILE183  PHE188  VAL189  ILE190  SER192  SER193  SER196  TRP342 
 PHE345  PHE346  HIS349  VAL350  TYR365  THR369  GLY372  TYR373 

> <Gold.Protein.RotatedAtoms>
    3.8599  -10.2645    4.5286 H   0  0  0  0  0  0  0  0  0  0  0  0  # atno 1303 bound_to 1298
    0.8919   -8.0492    7.0395 H   0  0  0  0  0  0  0  0  0  0  0  0  # atno 2461 bound_to 2456
   -3.9925   -4.8239    7.8694 H   0  0  0  0  0  0  0  0  0  0  0  0  # atno 2472 bound_to 2467
    2.1930   -8.7788    6.0203 H   0  0  0  0  0  0  0  0  0  0  0  0  # atno 2515 bound_to 2510
   -2.6692  -17.7945   13.2370 H   0  0  0  0  0  0  0  0  0  0  0  0  # atno 3721 bound_to 3712
   -4.6882  -23.2331   10.1366 H   0  0  0  0  0  0  0  0  0  0  0  0  # atno 3767 bound_to 3762
    1.5824  -20.1818    9.3810 H   0  0  0  0  0  0  0  0  0  0  0  0  # atno 3841 bound_to 3832
    3.6042   -8.8291    3.7934 LP  0  0  0  0  0  0  0  0  0  0  0  0  # atno 4297 bound_to 1298
    4.8982   -9.0275    4.7695 LP  0  0  0  0  0  0  0  0  0  0  0  0  # atno 4298 bound_to 1298
    0.6918   -9.2303    8.1496 LP  0  0  0  0  0  0  0  0  0  0  0  0  # atno 4299 bound_to 2456
    2.1539   -8.5285    7.9588 LP  0  0  0  0  0  0  0  0  0  0  0  0  # atno 4300 bound_to 2456
    2.2705   -7.4085    5.1359 LP  0  0  0  0  0  0  0  0  0  0  0  0  # atno 4301 bound_to 2510
    2.8334   -8.8117    4.5187 LP  0  0  0  0  0  0  0  0  0  0  0  0  # atno 4302 bound_to 2510
   -2.8786  -17.6103   14.8181 LP  0  0  0  0  0  0  0  0  0  0  0  0  # atno 4306 bound_to 3712
   -3.5674  -16.5719   13.7626 LP  0  0  0  0  0  0  0  0  0  0  0  0  # atno 4307 bound_to 3712
    2.5297  -19.8016    8.1424 LP  0  0  0  0  0  0  0  0  0  0  0  0  # atno 4314 bound_to 3832
    2.8717  -21.0907    9.0848 LP  0  0  0  0  0  0  0  0  0  0  0  0  # atno 4315 bound_to 3832
   -5.4140  -22.0031   10.9284 LP  0  0  0  0  0  0  0  0  0  0  0  0  # atno 4318 bound_to 3762
   -4.0252  -22.6391   11.5057 LP  0  0  0  0  0  0  0  0  0  0  0  0  # atno 4319 bound_to 3762
   -4.2238   -5.3937    9.3821 LP  0  0  0  0  0  0  0  0  0  0  0  0  # atno 4320 bound_to 2467
   -5.5005   -5.1758    8.3876 LP  0  0  0  0  0  0  0  0  0  0  0  0  # atno 4321 bound_to 2467

> <Gold.Score>
     Score     S(PLP)   S(hbond)     S(cho)   S(metal)  DE(clash)   DE(tors)     intcor
     38.36     -30.33       3.00       0.00       0.00       0.00       0.49       0.02

> <Gold.PLP.Fitness>
38.3588

> <Gold.PLP.PLP>
-30.3276

> <Gold.PLP.part.hbond>
-3.0000

> <Gold.PLP.part.metal>
0.0000

> <Gold.PLP.part.buried>
-5.0782

> <Gold.PLP.part.nonpolar>
-22.9649

> <Gold.PLP.part.repulsive>
0.1962

> <Gold.PLP.ligand.clash>
0.0000

> <Gold.PLP.ligand.torsion>
0.4923

> <Gold.PLP.Chemscore.Hbond>
3.0000

> <Gold.PLP.Chemscore.CHOScore>
0.0000

> <Gold.PLP.Chemscore.Metal>
0.0000

> <Gold.Chemscore.Hbonds>
donor molecule, donor type, donor heavy atom, donor atom, acceptor molecule, acceptor atom, score
      P1  H  2305  2313       L1    12  1.00
      P1  H  3712  3721       L1     9  1.00
      P1  H  3832  3841       L1    10  1.00

> <Gold.PLP.Chemscore.Internal.Correction>
0.0159

