#       Name:                EN300-1087079_i001
#       Creating user name   fsindt
#       Creation time:       Wed Mar  1 22:25:12 2023


#       File generated by GOLD software.
#

@<TRIPOS>MOLECULE
EN300-1087079_i001|acide_1|mol2|10295|dock16
    27    27     1
SMALL
USER_CHARGES


@<TRIPOS>ATOM
      1 C1           0.1975 -21.8999  11.9742 C.3            1 <1>                0.0000
      2 C2           0.5614 -20.7644  12.9329 C.3            1 <1>                0.0000
      3 C3          -0.3961 -19.5903  12.7196 C.3            1 <1>                0.0000
      4 C4          -0.2166 -18.9860  11.3020 C.3            1 <1>                0.0000
      5 C5          -0.6895 -17.5275  11.5234 C.3            1 <1>                0.0000
      6 N6          -0.2083 -17.1753  12.8716 N.am           1 <1>                0.0000
      7 C7          -0.0301 -18.4120  13.6466 C.3            1 <1>                0.0000
      8 C8           1.4045 -18.5359  14.0911 C.2            1 <1>                0.0000
      9 O9           2.2675 -17.8560  13.5625 O.co2          1 <1>                0.0000
     10 O10          1.7022 -19.3163  14.9793 O.co2          1 <1>               -1.0000
     11 C11          0.0296 -15.9265  13.3194 C.2            1 <1>                0.0000
     12 O12          0.4260 -15.7539  14.4525 O.2            1 <1>                0.0000
     13 C13         -0.1969 -14.7448  12.4121 C.3            1 <1>                0.0000
     14 H14          0.8796 -22.7363  12.1261 H              1 <1>                0.0000
     15 H15         -0.8248 -22.2250  12.1676 H              1 <1>                0.0000
     16 H16          0.2783 -21.5472  10.9460 H              1 <1>                0.0000
     17 H17          0.4807 -21.1170  13.9610 H              1 <1>                0.0000
     18 H18          1.5837 -20.4392  12.7395 H              1 <1>                0.0000
     19 H19         -1.4283 -19.9026  12.8779 H              1 <1>                0.0000
     20 H20          0.8287 -19.0152  10.9943 H              1 <1>                0.0000
     21 H21         -0.8503 -19.4963  10.5766 H              1 <1>                0.0000
     22 H22         -0.2460 -16.8675  10.7779 H              1 <1>                0.0000
     23 H23         -1.7773 -17.4710  11.4821 H              1 <1>                0.0000
     24 H24         -0.6898 -18.4040  14.5142 H              1 <1>                0.0000
     25 H25         -0.5502 -15.0941  11.4418 H              1 <1>                0.0000
     26 H26         -0.9432 -14.0849  12.8544 H              1 <1>                0.0000
     27 H27          0.7388 -14.2007  12.2837 H              1 <1>                0.0000
@<TRIPOS>BOND
    1    1    2 1     
    2    1   14 1     
    3    1   15 1     
    4    1   16 1     
    5    2    3 1     
    6    2   17 1     
    7    2   18 1     
    8    3    4 1     
    9    3    7 1     
   10    3   19 1     
   11    4    5 1     
   12    4   20 1     
   13    4   21 1     
   14    5    6 1     
   15    5   22 1     
   16    5   23 1     
   17    6    7 1     
   18    6   11 am    
   19    7    8 1     
   20    7   24 1     
   21    8    9 ar    
   22    8   10 ar    
   23   11   12 2     
   24   11   13 1     
   25   13   25 1     
   26   13   26 1     
   27   13   27 1     
@<TRIPOS>SUBSTRUCTURE
      1 ****           1
@<TRIPOS>COMMENT
> <Gold.Version>
2022.2.0

> <Gold.Id.Protein>
3pbl|protein|mol2

> <Gold.Protein.RotatedTorsions>
[ 1303 1298 1297 1294 ] final  156.07 input  179.99 | X-H torsion
[ 2461 2456 2455 2452 ] final  -26.96 input   30.03 | X-H torsion
[ 2515 2510 2509 2506 ] final  -86.84 input  -89.99 | X-H torsion
[ 3721 3712 3711 3710 ] final   -1.13 input -179.91 | X-H torsion
[ 3841 3832 3831 3830 ] final -173.31 input -179.91 | X-H torsion
[ 3767 3762 3761 3758 ] final -165.94 input  -89.99 | X-H torsion
[ 2472 2467 2466 2463 ] final   24.39 input  -89.97 | X-H torsion

> <Gold.Protein.ActiveResidues>
 VAL82   VAL86   LEU89   PHE106  VAL107  ASP110  VAL111  MET112  CYS114  THR115 
 CYS181  SER182  ILE183  PHE188  VAL189  ILE190  SER192  SER193  SER196  TRP342 
 PHE345  PHE346  HIS349  VAL350  TYR365  THR369  GLY372  TYR373 

> <Gold.Protein.RotatedAtoms>
    4.9111   -9.2207    4.8541 H   0  0  0  0  0  0  0  0  0  0  0  0  # atno 1303 bound_to 1298
    0.6587   -8.1933    7.1021 H   0  0  0  0  0  0  0  0  0  0  0  0  # atno 2461 bound_to 2456
   -4.0853   -4.8110    7.8053 H   0  0  0  0  0  0  0  0  0  0  0  0  # atno 2472 bound_to 2467
    2.8264   -8.8924    4.5770 H   0  0  0  0  0  0  0  0  0  0  0  0  # atno 2515 bound_to 2510
   -2.4894  -17.9500   14.2578 H   0  0  0  0  0  0  0  0  0  0  0  0  # atno 3721 bound_to 3712
   -4.2384  -22.3642   11.6313 H   0  0  0  0  0  0  0  0  0  0  0  0  # atno 3767 bound_to 3762
    2.8960  -19.9755    8.3829 H   0  0  0  0  0  0  0  0  0  0  0  0  # atno 3841 bound_to 3832
    3.7002  -10.2169    4.3986 LP  0  0  0  0  0  0  0  0  0  0  0  0  # atno 4297 bound_to 1298
    3.7506   -8.6838    3.8387 LP  0  0  0  0  0  0  0  0  0  0  0  0  # atno 4298 bound_to 1298
    0.9313   -9.2840    8.2868 LP  0  0  0  0  0  0  0  0  0  0  0  0  # atno 4299 bound_to 2456
    2.1476   -8.3308    7.7591 LP  0  0  0  0  0  0  0  0  0  0  0  0  # atno 4300 bound_to 2456
    2.1597   -8.6908    6.0537 LP  0  0  0  0  0  0  0  0  0  0  0  0  # atno 4301 bound_to 2510
    2.3104   -7.4157    5.0448 LP  0  0  0  0  0  0  0  0  0  0  0  0  # atno 4302 bound_to 2510
   -3.4482  -16.6750   14.4396 LP  0  0  0  0  0  0  0  0  0  0  0  0  # atno 4306 bound_to 3712
   -3.2055  -17.3277   12.9625 LP  0  0  0  0  0  0  0  0  0  0  0  0  # atno 4307 bound_to 3712
    2.4729  -21.1533    9.3878 LP  0  0  0  0  0  0  0  0  0  0  0  0  # atno 4314 bound_to 3832
    1.4111  -19.9773    8.9923 LP  0  0  0  0  0  0  0  0  0  0  0  0  # atno 4315 bound_to 3832
   -4.3818  -23.3279   10.3208 LP  0  0  0  0  0  0  0  0  0  0  0  0  # atno 4318 bound_to 3762
   -5.5071  -22.1828   10.6193 LP  0  0  0  0  0  0  0  0  0  0  0  0  # atno 4319 bound_to 3762
   -4.1217   -5.3674    9.3401 LP  0  0  0  0  0  0  0  0  0  0  0  0  # atno 4320 bound_to 2467
   -5.5098   -5.2151    8.4937 LP  0  0  0  0  0  0  0  0  0  0  0  0  # atno 4321 bound_to 2467

> <Gold.Score>
     Score     S(PLP)   S(hbond)     S(cho)   S(metal)  DE(clash)   DE(tors)     intcor
     31.97     -29.90       1.00       0.00       0.00       0.00       0.47       0.02

> <Gold.PLP.Fitness>
31.9746

> <Gold.PLP.PLP>
-29.9030

> <Gold.PLP.part.hbond>
-1.0000

> <Gold.PLP.part.metal>
0.0000

> <Gold.PLP.part.buried>
-5.0114

> <Gold.PLP.part.nonpolar>
-24.7706

> <Gold.PLP.part.repulsive>
0.2033

> <Gold.PLP.ligand.clash>
0.0000

> <Gold.PLP.ligand.torsion>
0.4721

> <Gold.PLP.Chemscore.Hbond>
1.0000

> <Gold.PLP.Chemscore.CHOScore>
0.0000

> <Gold.PLP.Chemscore.Metal>
0.0000

> <Gold.Chemscore.Hbonds>
donor molecule, donor type, donor heavy atom, donor atom, acceptor molecule, acceptor atom, score
      P1  H  2305  2313       L1    12  1.00

> <Gold.PLP.Chemscore.Internal.Correction>
0.0159

