#       Name:                EN300-1087079_i001
#       Creating user name   fsindt
#       Creation time:       Wed Mar  1 22:25:10 2023


#       File generated by GOLD software.
#

@<TRIPOS>MOLECULE
EN300-1087079_i001|acide_1|mol2|10295|dock12
    27    27     1
SMALL
USER_CHARGES


@<TRIPOS>ATOM
      1 C1           2.2968 -16.8320  14.2916 C.3            1 <1>                0.0000
      2 C2           1.4569 -18.0122  14.7841 C.3            1 <1>                0.0000
      3 C3           1.6680 -19.2106  13.8566 C.3            1 <1>                0.0000
      4 C4           1.1346 -18.9033  12.4324 C.3            1 <1>                0.0000
      5 C5           0.8062 -20.3242  11.9100 C.3            1 <1>                0.0000
      6 N6           0.2804 -21.0456  13.0833 N.am           1 <1>                0.0000
      7 C7           0.7980 -20.4051  14.3013 C.3            1 <1>                0.0000
      8 C8          -0.3476 -19.9169  15.1500 C.2            1 <1>                0.0000
      9 O9          -0.4877 -20.3379  16.2856 O.co2          1 <1>                0.0000
     10 O10         -1.1345 -19.1010  14.7009 O.co2          1 <1>               -1.0000
     11 C11         -0.5395 -22.1146  13.0456 C.2            1 <1>                0.0000
     12 O12         -0.9114 -22.6302  14.0784 O.2            1 <1>                0.0000
     13 C13         -0.9941 -22.6691  11.7202 C.3            1 <1>                0.0000
     14 H14          2.1464 -15.9782  14.9523 H              1 <1>                0.0000
     15 H15          3.3506 -17.1107  14.2922 H              1 <1>                0.0000
     16 H16          1.9919 -16.5663  13.2794 H              1 <1>                0.0000
     17 H17          1.7617 -18.2779  15.7962 H              1 <1>                0.0000
     18 H18          0.4031 -17.7335  14.7834 H              1 <1>                0.0000
     19 H19          2.7213 -19.4889  13.8221 H              1 <1>                0.0000
     20 H20          0.2372 -18.2861  12.4761 H              1 <1>                0.0000
     21 H21          1.9030 -18.4301  11.8210 H              1 <1>                0.0000
     22 H22          0.0512 -20.2749  11.1254 H              1 <1>                0.0000
     23 H23          1.7088 -20.8100  11.5391 H              1 <1>                0.0000
     24 H24          1.4033 -21.1151  14.8648 H              1 <1>                0.0000
     25 H25         -0.5608 -22.0799  10.9119 H              1 <1>                0.0000
     26 H26         -0.6688 -23.7055  11.6291 H              1 <1>                0.0000
     27 H27         -2.0816 -22.6230  11.6608 H              1 <1>                0.0000
@<TRIPOS>BOND
    1    1    2 1     
    2    1   14 1     
    3    1   15 1     
    4    1   16 1     
    5    2    3 1     
    6    2   17 1     
    7    2   18 1     
    8    3    4 1     
    9    3    7 1     
   10    3   19 1     
   11    4    5 1     
   12    4   20 1     
   13    4   21 1     
   14    5    6 1     
   15    5   22 1     
   16    5   23 1     
   17    6    7 1     
   18    6   11 am    
   19    7    8 1     
   20    7   24 1     
   21    8    9 ar    
   22    8   10 ar    
   23   11   12 2     
   24   11   13 1     
   25   13   25 1     
   26   13   26 1     
   27   13   27 1     
@<TRIPOS>SUBSTRUCTURE
      1 ****           1
@<TRIPOS>COMMENT
> <Gold.Version>
2022.2.0

> <Gold.Id.Protein>
3pbl|protein|mol2

> <Gold.Protein.RotatedTorsions>
[ 1303 1298 1297 1294 ] final   17.92 input  179.99 | X-H torsion
[ 2461 2456 2455 2452 ] final  170.16 input   30.03 | X-H torsion
[ 2515 2510 2509 2506 ] final -152.95 input  -89.99 | X-H torsion
[ 3721 3712 3711 3710 ] final   -0.11 input -179.91 | X-H torsion
[ 3841 3832 3831 3830 ] final   76.78 input -179.91 | X-H torsion
[ 3767 3762 3761 3758 ] final  -20.76 input  -89.99 | X-H torsion
[ 2472 2467 2466 2463 ] final -179.97 input  -89.97 | X-H torsion

> <Gold.Protein.ActiveResidues>
 VAL82   VAL86   LEU89   PHE106  VAL107  ASP110  VAL111  MET112  CYS114  THR115 
 CYS181  SER182  ILE183  PHE188  VAL189  ILE190  SER192  SER193  SER196  TRP342 
 PHE345  PHE346  HIS349  VAL350  TYR365  THR369  GLY372  TYR373 

> <Gold.Protein.RotatedAtoms>
    3.5123  -10.0781    4.2148 H   0  0  0  0  0  0  0  0  0  0  0  0  # atno 1303 bound_to 1298
    1.6003   -9.1560    8.3925 H   0  0  0  0  0  0  0  0  0  0  0  0  # atno 2461 bound_to 2456
   -5.3464   -5.3874    9.0196 H   0  0  0  0  0  0  0  0  0  0  0  0  # atno 2472 bound_to 2467
    2.5124   -9.2324    5.4951 H   0  0  0  0  0  0  0  0  0  0  0  0  # atno 2515 bound_to 2510
   -2.4871  -17.9560   14.2438 H   0  0  0  0  0  0  0  0  0  0  0  0  # atno 3721 bound_to 3712
   -5.4662  -22.4609   10.3193 H   0  0  0  0  0  0  0  0  0  0  0  0  # atno 3767 bound_to 3762
    2.6896  -20.9543    9.3871 H   0  0  0  0  0  0  0  0  0  0  0  0  # atno 3841 bound_to 3832
    3.9869   -8.5389    3.9467 LP  0  0  0  0  0  0  0  0  0  0  0  0  # atno 4297 bound_to 1298
    4.8632   -9.5041    4.9302 LP  0  0  0  0  0  0  0  0  0  0  0  0  # atno 4298 bound_to 1298
    1.7997   -7.9750    7.2822 LP  0  0  0  0  0  0  0  0  0  0  0  0  # atno 4299 bound_to 2456
    0.3379   -8.6773    7.4735 LP  0  0  0  0  0  0  0  0  0  0  0  0  # atno 4300 bound_to 2456
    2.0495   -7.6982    5.8077 LP  0  0  0  0  0  0  0  0  0  0  0  0  # atno 4301 bound_to 2510
    2.7348   -8.0681    4.3723 LP  0  0  0  0  0  0  0  0  0  0  0  0  # atno 4302 bound_to 2510
   -3.4424  -16.6828   14.4537 LP  0  0  0  0  0  0  0  0  0  0  0  0  # atno 4306 bound_to 3712
   -3.2138  -17.3130   12.9646 LP  0  0  0  0  0  0  0  0  0  0  0  0  # atno 4307 bound_to 3712
    1.3938  -20.0595    9.0766 LP  0  0  0  0  0  0  0  0  0  0  0  0  # atno 4314 bound_to 3832
    2.7286  -19.9404    8.1435 LP  0  0  0  0  0  0  0  0  0  0  0  0  # atno 4315 bound_to 3832
   -4.5600  -22.1082   11.6313 LP  0  0  0  0  0  0  0  0  0  0  0  0  # atno 4318 bound_to 3762
   -4.1015  -23.3058   10.6203 LP  0  0  0  0  0  0  0  0  0  0  0  0  # atno 4319 bound_to 3762
   -4.6437   -4.8192    7.6596 LP  0  0  0  0  0  0  0  0  0  0  0  0  # atno 4320 bound_to 2467
   -3.7270   -5.1870    8.9600 LP  0  0  0  0  0  0  0  0  0  0  0  0  # atno 4321 bound_to 2467

> <Gold.Score>
     Score     S(PLP)   S(hbond)     S(cho)   S(metal)  DE(clash)   DE(tors)     intcor
     31.56     -28.57       1.00       0.00       0.00       0.00       0.01       0.02

> <Gold.PLP.Fitness>
31.5642

> <Gold.PLP.PLP>
-28.5689

> <Gold.PLP.part.hbond>
-1.0000

> <Gold.PLP.part.metal>
0.0000

> <Gold.PLP.part.buried>
-3.3881

> <Gold.PLP.part.nonpolar>
-24.6206

> <Gold.PLP.part.repulsive>
0.0517

> <Gold.PLP.ligand.clash>
0.0000

> <Gold.PLP.ligand.torsion>
0.0103

> <Gold.PLP.Chemscore.Hbond>
1.0000

> <Gold.PLP.Chemscore.CHOScore>
0.0000

> <Gold.PLP.Chemscore.Metal>
0.0000

> <Gold.Chemscore.Hbonds>
donor molecule, donor type, donor heavy atom, donor atom, acceptor molecule, acceptor atom, score
      P1  H  3712  3721       L1    10  1.00

> <Gold.PLP.Chemscore.Internal.Correction>
0.0159

