#       Name:                EN300-1087079_i001
#       Creating user name   fsindt
#       Creation time:       Wed Mar  1 22:25:06 2023


#       File generated by GOLD software.
#

@<TRIPOS>MOLECULE
EN300-1087079_i001|acide_1|mol2|10295|dock2
    27    27     1
SMALL
USER_CHARGES


@<TRIPOS>ATOM
      1 C1          -0.0553 -16.2205  11.6213 C.3            1 <1>                0.0000
      2 C2           0.2729 -15.8021  10.1867 C.3            1 <1>                0.0000
      3 C3           0.7391 -14.3448  10.1746 C.3            1 <1>                0.0000
      4 C4          -0.4129 -13.3963  10.5994 C.3            1 <1>                0.0000
      5 C5          -0.0071 -12.0786   9.8932 C.3            1 <1>                0.0000
      6 N6           0.5674 -12.5028   8.6036 N.am           1 <1>                0.0000
      7 C7           1.0534 -13.8842   8.7356 C.3            1 <1>                0.0000
      8 C8           0.3450 -14.7734   7.7465 C.2            1 <1>                0.0000
      9 O9           0.7948 -15.8765   7.4872 O.co2          1 <1>                0.0000
     10 O10         -0.6779 -14.3895   7.2053 O.co2          1 <1>               -1.0000
     11 C11          0.6352 -11.7495   7.4881 C.2            1 <1>                0.0000
     12 O12          0.2003 -10.6174   7.4936 O.2            1 <1>                0.0000
     13 C13          1.2514 -12.3138   6.2340 C.3            1 <1>                0.0000
     14 H14         -0.3875 -17.2586  11.6300 H              1 <1>                0.0000
     15 H15          0.8348 -16.1186  12.2422 H              1 <1>                0.0000
     16 H16         -0.8471 -15.5825  12.0138 H              1 <1>                0.0000
     17 H17          1.0646 -16.4401   9.7943 H              1 <1>                0.0000
     18 H18         -0.6171 -15.9039   9.5658 H              1 <1>                0.0000
     19 H19          1.6057 -14.2132  10.8224 H              1 <1>                0.0000
     20 H20         -1.3727 -13.7578  10.2303 H              1 <1>                0.0000
     21 H21         -0.4351 -13.2689  11.6817 H              1 <1>                0.0000
     22 H22         -0.8829 -11.4504   9.7301 H              1 <1>                0.0000
     23 H23          0.7383 -11.5458  10.4837 H              1 <1>                0.0000
     24 H24          2.1291 -13.9168   8.5626 H              1 <1>                0.0000
     25 H25          1.5830 -13.3355   6.4200 H              1 <1>                0.0000
     26 H26          0.5119 -12.3120   5.4332 H              1 <1>                0.0000
     27 H27          2.1051 -11.7023   5.9417 H              1 <1>                0.0000
@<TRIPOS>BOND
    1    1    2 1     
    2    1   14 1     
    3    1   15 1     
    4    1   16 1     
    5    2    3 1     
    6    2   17 1     
    7    2   18 1     
    8    3    4 1     
    9    3    7 1     
   10    3   19 1     
   11    4    5 1     
   12    4   20 1     
   13    4   21 1     
   14    5    6 1     
   15    5   22 1     
   16    5   23 1     
   17    6    7 1     
   18    6   11 am    
   19    7    8 1     
   20    7   24 1     
   21    8    9 ar    
   22    8   10 ar    
   23   11   12 2     
   24   11   13 1     
   25   13   25 1     
   26   13   26 1     
   27   13   27 1     
@<TRIPOS>SUBSTRUCTURE
      1 ****           1
@<TRIPOS>COMMENT
> <Gold.Version>
2022.2.0

> <Gold.Id.Protein>
3pbl|protein|mol2

> <Gold.Protein.RotatedTorsions>
[ 1303 1298 1297 1294 ] final   31.24 input  179.99 | X-H torsion
[ 2461 2456 2455 2452 ] final -116.18 input   30.03 | X-H torsion
[ 2515 2510 2509 2506 ] final -145.99 input  -89.99 | X-H torsion
[ 3721 3712 3711 3710 ] final   23.43 input -179.91 | X-H torsion
[ 3841 3832 3831 3830 ] final -166.94 input -179.91 | X-H torsion
[ 3767 3762 3761 3758 ] final -110.18 input  -89.99 | X-H torsion
[ 2472 2467 2466 2463 ] final   25.83 input  -89.97 | X-H torsion

> <Gold.Protein.ActiveResidues>
 VAL82   VAL86   LEU89   PHE106  VAL107  ASP110  VAL111  MET112  CYS114  THR115 
 CYS181  SER182  ILE183  PHE188  VAL189  ILE190  SER192  SER193  SER196  TRP342 
 PHE345  PHE346  HIS349  VAL350  TYR365  THR369  GLY372  TYR373 

> <Gold.Protein.RotatedAtoms>
    3.6452  -10.1875    4.3496 H   0  0  0  0  0  0  0  0  0  0  0  0  # atno 1303 bound_to 1298
    0.5356   -9.1476    8.0125 H   0  0  0  0  0  0  0  0  0  0  0  0  # atno 2461 bound_to 2456
   -4.1056   -4.8089    7.7932 H   0  0  0  0  0  0  0  0  0  0  0  0  # atno 2472 bound_to 2467
    2.5597   -9.2517    5.3927 H   0  0  0  0  0  0  0  0  0  0  0  0  # atno 2515 bound_to 2510
   -2.4734  -18.0335   13.8993 H   0  0  0  0  0  0  0  0  0  0  0  0  # atno 3721 bound_to 3712
   -4.9814  -21.9315   11.4350 H   0  0  0  0  0  0  0  0  0  0  0  0  # atno 3767 bound_to 3762
    2.8301  -19.9080    8.3634 H   0  0  0  0  0  0  0  0  0  0  0  0  # atno 3841 bound_to 3832
    3.8108   -8.6377    3.8627 LP  0  0  0  0  0  0  0  0  0  0  0  0  # atno 4297 bound_to 1298
    4.9063   -9.2957    4.8793 LP  0  0  0  0  0  0  0  0  0  0  0  0  # atno 4298 bound_to 1298
    2.1011   -8.6912    8.1030 LP  0  0  0  0  0  0  0  0  0  0  0  0  # atno 4299 bound_to 2456
    1.1009   -7.9695    7.0328 LP  0  0  0  0  0  0  0  0  0  0  0  0  # atno 4300 bound_to 2456
    2.0368   -7.7844    5.8820 LP  0  0  0  0  0  0  0  0  0  0  0  0  # atno 4301 bound_to 2510
    2.7002   -7.9626    4.4005 LP  0  0  0  0  0  0  0  0  0  0  0  0  # atno 4302 bound_to 2510
   -3.2838  -16.9180   14.7221 LP  0  0  0  0  0  0  0  0  0  0  0  0  # atno 4306 bound_to 3712
   -3.3883  -16.9884   13.0940 LP  0  0  0  0  0  0  0  0  0  0  0  0  # atno 4307 bound_to 3712
    2.5651  -21.1579    9.3348 LP  0  0  0  0  0  0  0  0  0  0  0  0  # atno 4314 bound_to 3832
    1.3950  -20.0506    9.0679 LP  0  0  0  0  0  0  0  0  0  0  0  0  # atno 4315 bound_to 3832
   -3.9197  -23.1073   11.0386 LP  0  0  0  0  0  0  0  0  0  0  0  0  # atno 4318 bound_to 3762
   -5.2264  -22.8360   10.0976 LP  0  0  0  0  0  0  0  0  0  0  0  0  # atno 4319 bound_to 3762
   -4.1012   -5.3614    9.3298 LP  0  0  0  0  0  0  0  0  0  0  0  0  # atno 4320 bound_to 2467
   -5.5101   -5.2231    8.5159 LP  0  0  0  0  0  0  0  0  0  0  0  0  # atno 4321 bound_to 2467

> <Gold.Score>
     Score     S(PLP)   S(hbond)     S(cho)   S(metal)  DE(clash)   DE(tors)     intcor
     39.03     -37.24       0.90       0.00       0.00       0.00       0.47       0.02

> <Gold.PLP.Fitness>
39.0329

> <Gold.PLP.PLP>
-37.2360

> <Gold.PLP.part.hbond>
-0.6126

> <Gold.PLP.part.metal>
0.0000

> <Gold.PLP.part.buried>
-2.9161

> <Gold.PLP.part.nonpolar>
-34.2574

> <Gold.PLP.part.repulsive>
0.2510

> <Gold.PLP.ligand.clash>
0.0000

> <Gold.PLP.ligand.torsion>
0.4655

> <Gold.PLP.Chemscore.Hbond>
0.9040

> <Gold.PLP.Chemscore.CHOScore>
0.0000

> <Gold.PLP.Chemscore.Metal>
0.0000

> <Gold.Chemscore.Hbonds>
donor molecule, donor type, donor heavy atom, donor atom, acceptor molecule, acceptor atom, score
      P1  H  2456  2461       L1    12  0.90

> <Gold.PLP.Chemscore.Internal.Correction>
0.0159

