#       Name:                EN300-1087079_i001
#       Creating user name   fsindt
#       Creation time:       Wed Mar  1 22:25:07 2023


#       File generated by GOLD software.
#

@<TRIPOS>MOLECULE
EN300-1087079_i001|acide_1|mol2|10295|dock5
    27    27     1
SMALL
USER_CHARGES


@<TRIPOS>ATOM
      1 C1          -3.4162  -9.7713   9.6035 C.3            1 <1>                0.0000
      2 C2          -1.9791 -10.2079   9.8950 C.3            1 <1>                0.0000
      3 C3          -1.9536 -11.7067  10.2012 C.3            1 <1>                0.0000
      4 C4          -1.6153 -11.9563  11.6947 C.3            1 <1>                0.0000
      5 C5          -0.9847 -13.3701  11.6387 C.3            1 <1>                0.0000
      6 N6          -0.2150 -13.3906  10.3815 N.am           1 <1>                0.0000
      7 C7          -0.7865 -12.3951   9.4627 C.3            1 <1>                0.0000
      8 C8           0.2608 -11.3754   9.0961 C.2            1 <1>                0.0000
      9 O9           0.5170 -11.1589   7.9240 O.co2          1 <1>                0.0000
     10 O10          0.8519 -10.7669   9.9719 O.co2          1 <1>               -1.0000
     11 C11          0.8384 -14.1890  10.1183 C.2            1 <1>                0.0000
     12 O12          1.3986 -14.1196   9.0449 O.2            1 <1>                0.0000
     13 C13          1.3201 -15.1680  11.1577 C.3            1 <1>                0.0000
     14 H14         -3.4343  -8.7035   9.3854 H              1 <1>                0.0000
     15 H15         -3.7967 -10.3241   8.7446 H              1 <1>                0.0000
     16 H16         -4.0413  -9.9752  10.4728 H              1 <1>                0.0000
     17 H17         -1.3539 -10.0040   9.0258 H              1 <1>                0.0000
     18 H18         -1.5985  -9.6551  10.7539 H              1 <1>                0.0000
     19 H19         -2.9054 -12.1687   9.9391 H              1 <1>                0.0000
     20 H20         -0.8971 -11.2224  12.0605 H              1 <1>                0.0000
     21 H21         -2.5182 -11.9551  12.3054 H              1 <1>                0.0000
     22 H22         -0.3230 -13.5244  12.4911 H              1 <1>                0.0000
     23 H23         -1.7636 -14.1324  11.6191 H              1 <1>                0.0000
     24 H24         -1.1563 -12.8892   8.5642 H              1 <1>                0.0000
     25 H25          0.6984 -15.0865  12.0494 H              1 <1>                0.0000
     26 H26          1.2548 -16.1810  10.7607 H              1 <1>                0.0000
     27 H27          2.3555 -14.9446  11.4151 H              1 <1>                0.0000
@<TRIPOS>BOND
    1    1    2 1     
    2    1   14 1     
    3    1   15 1     
    4    1   16 1     
    5    2    3 1     
    6    2   17 1     
    7    2   18 1     
    8    3    4 1     
    9    3    7 1     
   10    3   19 1     
   11    4    5 1     
   12    4   20 1     
   13    4   21 1     
   14    5    6 1     
   15    5   22 1     
   16    5   23 1     
   17    6    7 1     
   18    6   11 am    
   19    7    8 1     
   20    7   24 1     
   21    8    9 ar    
   22    8   10 ar    
   23   11   12 2     
   24   11   13 1     
   25   13   25 1     
   26   13   26 1     
   27   13   27 1     
@<TRIPOS>SUBSTRUCTURE
      1 ****           1
@<TRIPOS>COMMENT
> <Gold.Version>
2022.2.0

> <Gold.Id.Protein>
3pbl|protein|mol2

> <Gold.Protein.RotatedTorsions>
[ 1303 1298 1297 1294 ] final   58.10 input  179.99 | X-H torsion
[ 2461 2456 2455 2452 ] final -143.26 input   30.03 | X-H torsion
[ 2515 2510 2509 2506 ] final  -75.84 input  -89.99 | X-H torsion
[ 3721 3712 3711 3710 ] final   26.92 input -179.91 | X-H torsion
[ 3841 3832 3831 3830 ] final  -66.74 input -179.91 | X-H torsion
[ 3767 3762 3761 3758 ] final -114.40 input  -89.99 | X-H torsion
[ 2472 2467 2466 2463 ] final  -62.34 input  -89.97 | X-H torsion

> <Gold.Protein.ActiveResidues>
 VAL82   VAL86   LEU89   PHE106  VAL107  ASP110  VAL111  MET112  CYS114  THR115 
 CYS181  SER182  ILE183  PHE188  VAL189  ILE190  SER192  SER193  SER196  TRP342 
 PHE345  PHE346  HIS349  VAL350  TYR365  THR369  GLY372  TYR373 

> <Gold.Protein.RotatedAtoms>
    3.9821  -10.2713    4.6163 H   0  0  0  0  0  0  0  0  0  0  0  0  # atno 1303 bound_to 1298
    0.8764   -9.2776    8.2613 H   0  0  0  0  0  0  0  0  0  0  0  0  # atno 2461 bound_to 2456
   -3.7443   -5.2012    8.9919 H   0  0  0  0  0  0  0  0  0  0  0  0  # atno 2472 bound_to 2467
    2.8357   -8.7417    4.4778 H   0  0  0  0  0  0  0  0  0  0  0  0  # atno 2515 bound_to 2510
   -2.4776  -18.0343   13.8468 H   0  0  0  0  0  0  0  0  0  0  0  0  # atno 3721 bound_to 3712
   -4.9251  -21.9449   11.4734 H   0  0  0  0  0  0  0  0  0  0  0  0  # atno 3767 bound_to 3762
    1.6513  -19.7545    8.9558 H   0  0  0  0  0  0  0  0  0  0  0  0  # atno 3841 bound_to 3832
    3.5154   -8.9498    3.7784 LP  0  0  0  0  0  0  0  0  0  0  0  0  # atno 4297 bound_to 1298
    4.8647   -8.8999    4.6968 LP  0  0  0  0  0  0  0  0  0  0  0  0  # atno 4298 bound_to 1298
    2.1559   -8.3719    7.8031 LP  0  0  0  0  0  0  0  0  0  0  0  0  # atno 4299 bound_to 2456
    0.7054   -8.1588    7.0839 LP  0  0  0  0  0  0  0  0  0  0  0  0  # atno 4300 bound_to 2456
    2.2216   -8.8470    5.9869 LP  0  0  0  0  0  0  0  0  0  0  0  0  # atno 4301 bound_to 2510
    2.2392   -7.4103    5.2109 LP  0  0  0  0  0  0  0  0  0  0  0  0  # atno 4302 bound_to 2510
   -3.2568  -16.9606   14.7512 LP  0  0  0  0  0  0  0  0  0  0  0  0  # atno 4306 bound_to 3712
   -3.4105  -16.9447   13.1255 LP  0  0  0  0  0  0  0  0  0  0  0  0  # atno 4307 bound_to 3712
    3.0055  -20.2604    8.2585 LP  0  0  0  0  0  0  0  0  0  0  0  0  # atno 4314 bound_to 3832
    2.3163  -21.1255    9.4599 LP  0  0  0  0  0  0  0  0  0  0  0  0  # atno 4315 bound_to 3832
   -3.9322  -23.1444   10.9813 LP  0  0  0  0  0  0  0  0  0  0  0  0  # atno 4318 bound_to 3762
   -5.2701  -22.7855   10.1165 LP  0  0  0  0  0  0  0  0  0  0  0  0  # atno 4319 bound_to 3762
   -5.3677   -5.3777    8.9884 LP  0  0  0  0  0  0  0  0  0  0  0  0  # atno 4320 bound_to 2467
   -4.6048   -4.8147    7.6589 LP  0  0  0  0  0  0  0  0  0  0  0  0  # atno 4321 bound_to 2467

> <Gold.Score>
     Score     S(PLP)   S(hbond)     S(cho)   S(metal)  DE(clash)   DE(tors)     intcor
     40.31     -39.76       0.65       0.00       0.00       0.00       0.71       0.02

> <Gold.PLP.Fitness>
40.3119

> <Gold.PLP.PLP>
-39.7587

> <Gold.PLP.part.hbond>
-1.8278

> <Gold.PLP.part.metal>
0.0000

> <Gold.PLP.part.buried>
-1.8456

> <Gold.PLP.part.nonpolar>
-37.5291

> <Gold.PLP.part.repulsive>
0.1134

> <Gold.PLP.ligand.clash>
0.0000

> <Gold.PLP.ligand.torsion>
0.7063

> <Gold.PLP.Chemscore.Hbond>
0.6500

> <Gold.PLP.Chemscore.CHOScore>
0.0000

> <Gold.PLP.Chemscore.Metal>
0.0000

> <Gold.Chemscore.Hbonds>
donor molecule, donor type, donor heavy atom, donor atom, acceptor molecule, acceptor atom, score
      P1  H  2456  2461       L1     9  0.65

> <Gold.PLP.Chemscore.Internal.Correction>
0.0159

