#       Name:                plp ligand
#       Creating user name   fsindt
#       Creation time:       Wed Mar  1 22:25:05 2023


#       File generated by GOLD software.
#

@<TRIPOS>MOLECULE
plp ligand
    27    27     1
SMALL
USER_CHARGES


@<TRIPOS>ATOM
      1 C1           3.4686  -0.2365  -0.0470 NONPOLAR       1 <1>                0.0000
      2 C2           2.2516   0.6806   0.0897 NONPOLAR       1 <1>                0.0000
      3 C3           1.0531  -0.1326   0.5829 NONPOLAR       1 <1>                0.0000
      4 C4           0.6120  -1.1650  -0.4880 NONPOLAR       1 <1>                0.0000
      5 C5          -0.8864  -1.3512  -0.1419 NONPOLAR       1 <1>                0.0000
      6 N6          -1.3497  -0.0114   0.2627 NONPOLAR       1 <1>                0.0000
      7 C7          -0.1928   0.7660   0.7306 NONPOLAR       1 <1>                0.0000
      8 C8          -0.0337   2.0054  -0.1118 NONPOLAR       1 <1>                0.0000
      9 O9          -0.8280   2.2407  -1.0063 ACCEPTOR       1 <1>                0.0000
     10 O10          0.8895   2.7728   0.1012 ACCEPTOR       1 <1>               -1.0000
     11 C11         -2.6227   0.4282   0.2114 NONPOLAR       1 <1>                0.0000
     12 O12         -2.8900   1.5551   0.5713 ACCEPTOR       1 <1>                0.0000
     13 C13         -3.7139  -0.4804  -0.2931 NONPOLAR       1 <1>                0.0000
     14 H14          4.3224   0.3428  -0.3984                1 <1>                0.0000
     15 H15          3.7024  -0.6768   0.9223                1 <1>                0.0000
     16 H16          3.2480  -1.0288  -0.7623                1 <1>                0.0000
     17 H17          2.4722   1.4729   0.8049                1 <1>                0.0000
     18 H18          2.0177   1.1209  -0.8796                1 <1>                0.0000
     19 H19          1.2872  -0.6296   1.5243                1 <1>                0.0000
     20 H20          0.7335  -0.7613  -1.4932                1 <1>                0.0000
     21 H21          1.1582  -2.1016  -0.3761                1 <1>                0.0000
     22 H22         -1.4380  -1.6951  -1.0169                1 <1>                0.0000
     23 H23         -1.0008  -2.0567   0.6811                1 <1>                0.0000
     24 H24         -0.3296   1.0411   1.7764                1 <1>                0.0000
     25 H25         -3.2858  -1.4444  -0.5683                1 <1>                0.0000
     26 H26         -4.4584  -0.6238   0.4900                1 <1>                0.0000
     27 H27         -4.1868  -0.0304  -1.1661                1 <1>                0.0000
@<TRIPOS>BOND
    1    1    2 1     
    2    1   14 1     
    3    1   15 1     
    4    1   16 1     
    5    2    3 1     
    6    2   17 1     
    7    2   18 1     
    8    3    4 1     
    9    3    7 1     
   10    3   19 1     
   11    4    5 1     
   12    4   20 1     
   13    4   21 1     
   14    5    6 1     
   15    5   22 1     
   16    5   23 1     
   17    6    7 1     
   18    6   11 am    
   19    7    8 1     
   20    7   24 1     
   21    8    9 ar    
   22    8   10 ar    
   23   11   12 2     
   24   11   13 1     
   25   13   25 1     
   26   13   26 1     
   27   13   27 1     
@<TRIPOS>SUBSTRUCTURE
      1 ****           1
@<TRIPOS>SET
DONOR_HYDROGENS      STATIC     ATOMS    <user>   **** ""
0
ATOM$RED        STATIC     ATOMS    COLORGROUP SYSTEM
0
