#       Name:                EN300-156846_i001
#       Creating user name   aseyller
#       Creation time:       Fri Apr 21 19:36:13 2023


#       File generated by GOLD software.
#

@<TRIPOS>MOLECULE
EN300-156846_i001|benzaldehydes|mol2|873|dock17
    18    19     1
SMALL
USER_CHARGES


@<TRIPOS>ATOM
      1 O1          26.3018  37.8934  38.4804 O.2            1 <1>                0.0000
      2 C2          27.3085  37.2182  38.5348 C.2            1 <1>                0.0000
      3 C3          27.6854  36.5657  39.7900 C.2            1 <1>                0.0000
      4 C4          26.8841  36.3821  40.9044 C.2            1 <1>                0.0000
      5 N5          27.6104  35.7441  41.8315 N.pl3          1 <1>                0.0000
      6 N6          28.8958  35.5002  41.3404 N.2            1 <1>                0.0000
      7 C7          28.9867  35.9693  40.1170 C.2            1 <1>                0.0000
      8 C8          30.1788  35.9159  39.2378 C.2            1 <1>                0.0000
      9 C9          30.9608  34.7706  39.0949 C.2            1 <1>                0.0000
     10 C10         31.9931  34.8967  38.2653 C.2            1 <1>                0.0000
     11 S11         32.0323  36.5232  37.5992 S.3            1 <1>                0.0000
     12 C12         30.5931  36.9680  38.5064 C.2            1 <1>                0.0000
     13 H13         27.9243  37.0950  37.6561 H              1 <1>                0.0000
     14 H14         25.8564  36.6977  41.0078 H              1 <1>                0.0000
     15 H15         30.7452  33.8509  39.6183 H              1 <1>                0.0000
     16 H16         32.7026  34.1154  38.0355 H              1 <1>                0.0000
     17 H17         30.1172  37.9372  38.4839 H              1 <1>                0.0000
     18 H18         27.2920  35.4897  42.7117 H              1 <1>                0.0000
@<TRIPOS>BOND
    1    1    2 2     
    2    2    3 1     
    3    2   13 1     
    4    3    4 2     
    5    3    7 1     
    6    4    5 1     
    7    4   14 1     
    8    5    6 1     
    9    5   18 1     
   10    6    7 2     
   11    7    8 1     
   12    8    9 1     
   13    8   12 2     
   14    9   10 2     
   15    9   15 1     
   16   10   11 1     
   17   10   16 1     
   18   11   12 1     
   19   12   17 1     
@<TRIPOS>SUBSTRUCTURE
      1 ****           1
@<TRIPOS>SET
DONOR_HYDROGENS      STATIC     ATOMS    <user>   **** ""
1 18
ATOM$RED        STATIC     ATOMS    COLORGROUP SYSTEM
1 18
@<TRIPOS>COMMENT
> <Gold.Version>
2022.2.0

> <Gold.Id.Protein>
1qkm|1qkm_protein|mol2

> <Gold.Protein.RotatedTorsions>
[  496  491  490  487 ] final   86.49 input  -89.99 | X-H torsion

> <Gold.Protein.ActiveResidues>
 MET295  LEU298  THR299  LEU301  ALA302  GLU305  TRP335  MET336  LEU339  MET340 
 GLY342  LEU343  ARG346  PHE356  ILE373  ILE376  PHE377  LEU380  LYS471  GLY472 
 MET473  HIS475  LEU476  LEU477  ASN478  MET479  VAL484  VAL487 

> <Gold.Protein.RotatedAtoms>
   36.7878   33.0465   42.0653 H   0  0  0  0  0  0  0  0  0  0  0  0  # atno 496  bound_to 491 

> <Gold.Score>
     Score     S(PLP)   S(hbond)     S(cho)   S(metal)  DE(clash)   DE(tors)     intcor
     38.56     -37.11       1.00       0.00       0.00       0.00       0.77       0.00

> <Gold.PLP.Fitness>
38.5626

> <Gold.PLP.PLP>
-37.1091

> <Gold.PLP.part.hbond>
-1.0000

> <Gold.PLP.part.metal>
0.0000

> <Gold.PLP.part.buried>
-3.2033

> <Gold.PLP.part.nonpolar>
-33.4156

> <Gold.PLP.part.repulsive>
0.8342

> <Gold.PLP.ligand.clash>
0.0000

> <Gold.PLP.ligand.torsion>
0.7733

> <Gold.PLP.Chemscore.Hbond>
1.0000

> <Gold.PLP.Chemscore.CHOScore>
0.0000

> <Gold.PLP.Chemscore.Metal>
0.0000

> <Gold.Chemscore.Hbonds>
donor molecule, donor type, donor heavy atom, donor atom, acceptor molecule, acceptor atom, score
      L1  H     5    18       P1   582  1.00

> <Gold.PLP.Chemscore.Internal.Correction>
0.0002

