#       Name:                EN300-156846_i001
#       Creating user name   aseyller
#       Creation time:       Fri Apr 21 19:36:10 2023


#       File generated by GOLD software.
#

@<TRIPOS>MOLECULE
EN300-156846_i001|benzaldehydes|mol2|873|dock9
    18    19     1
SMALL
USER_CHARGES


@<TRIPOS>ATOM
      1 O1          28.5344  35.5015  42.0986 O.2            1 <1>                0.0000
      2 C2          28.5510  36.3904  41.2727 C.2            1 <1>                0.0000
      3 C3          27.3471  36.6895  40.4949 C.2            1 <1>                0.0000
      4 C4          26.0334  36.5346  40.9046 C.2            1 <1>                0.0000
      5 N5          25.2409  36.9213  39.8963 N.pl3          1 <1>                0.0000
      6 N6          26.0210  37.3346  38.8131 N.2            1 <1>                0.0000
      7 C7          27.2912  37.2197  39.1269 C.2            1 <1>                0.0000
      8 C8          28.4475  37.5522  38.2613 C.2            1 <1>                0.0000
      9 C9          29.7355  37.0785  38.5074 C.2            1 <1>                0.0000
     10 C10         30.6549  37.4734  37.6307 C.2            1 <1>                0.0000
     11 S11         29.9167  38.4983  36.4078 S.3            1 <1>                0.0000
     12 C12         28.3402  38.3321  37.1688 C.2            1 <1>                0.0000
     13 H13         29.4524  36.9637  41.1143 H              1 <1>                0.0000
     14 H14         25.7060  36.1668  41.8658 H              1 <1>                0.0000
     15 H15         29.9692  36.4398  39.3463 H              1 <1>                0.0000
     16 H16         31.7003  37.2045  37.6655 H              1 <1>                0.0000
     17 H17         27.4271  38.7889  36.8167 H              1 <1>                0.0000
     18 H18         24.2711  36.9152  39.9152 H              1 <1>                0.0000
@<TRIPOS>BOND
    1    1    2 2     
    2    2    3 1     
    3    2   13 1     
    4    3    4 2     
    5    3    7 1     
    6    4    5 1     
    7    4   14 1     
    8    5    6 1     
    9    5   18 1     
   10    6    7 2     
   11    7    8 1     
   12    8    9 1     
   13    8   12 2     
   14    9   10 2     
   15    9   15 1     
   16   10   11 1     
   17   10   16 1     
   18   11   12 1     
   19   12   17 1     
@<TRIPOS>SUBSTRUCTURE
      1 ****           1
@<TRIPOS>SET
DONOR_HYDROGENS      STATIC     ATOMS    <user>   **** ""
1 18
ATOM$RED        STATIC     ATOMS    COLORGROUP SYSTEM
1 18
@<TRIPOS>COMMENT
> <Gold.Version>
2022.2.0

> <Gold.Id.Protein>
1qkm|1qkm_protein|mol2

> <Gold.Protein.RotatedTorsions>
[  496  491  490  487 ] final  -27.25 input  -89.99 | X-H torsion

> <Gold.Protein.ActiveResidues>
 MET295  LEU298  THR299  LEU301  ALA302  GLU305  TRP335  MET336  LEU339  MET340 
 GLY342  LEU343  ARG346  PHE356  ILE373  ILE376  PHE377  LEU380  LYS471  GLY472 
 MET473  HIS475  LEU476  LEU477  ASN478  MET479  VAL484  VAL487 

> <Gold.Protein.RotatedAtoms>
   36.3040   34.5454   41.9437 H   0  0  0  0  0  0  0  0  0  0  0  0  # atno 496  bound_to 491 

> <Gold.Score>
     Score     S(PLP)   S(hbond)     S(cho)   S(metal)  DE(clash)   DE(tors)     intcor
     42.26     -36.93       0.99       1.00       0.00       0.00       0.33       0.00

> <Gold.PLP.Fitness>
42.2574

> <Gold.PLP.PLP>
-36.9347

> <Gold.PLP.part.hbond>
-1.5220

> <Gold.PLP.part.metal>
0.0000

> <Gold.PLP.part.buried>
-4.7315

> <Gold.PLP.part.nonpolar>
-31.6985

> <Gold.PLP.part.repulsive>
0.4863

> <Gold.PLP.ligand.clash>
0.0000

> <Gold.PLP.ligand.torsion>
0.3267

> <Gold.PLP.Chemscore.Hbond>
0.9920

> <Gold.PLP.Chemscore.CHOScore>
1.0000

> <Gold.PLP.Chemscore.Metal>
0.0000

> <Gold.Chemscore.Hbonds>
donor molecule, donor type, donor heavy atom, donor atom, acceptor molecule, acceptor atom, score
      L1  H     5    18       P1  1131  0.99
      L1  C     4    14       P1   582  1.00

> <Gold.PLP.Chemscore.Internal.Correction>
0.0002

