#       Name:                EN300-156846_i001
#       Creating user name   aseyller
#       Creation time:       Fri Apr 21 19:36:09 2023


#       File generated by GOLD software.
#

@<TRIPOS>MOLECULE
EN300-156846_i001|benzaldehydes|mol2|873|dock8
    18    19     1
SMALL
USER_CHARGES


@<TRIPOS>ATOM
      1 O1          30.3270  39.4449  36.5475 O.2            1 <1>                0.0000
      2 C2          29.7663  38.6685  37.2926 C.2            1 <1>                0.0000
      3 C3          30.4821  37.4981  37.8038 C.2            1 <1>                0.0000
      4 C4          31.7885  37.1348  37.5225 C.2            1 <1>                0.0000
      5 N5          32.0526  36.0039  38.1900 N.pl3          1 <1>                0.0000
      6 N6          30.9264  35.6096  38.9172 N.2            1 <1>                0.0000
      7 C7          29.9607  36.4781  38.7224 C.2            1 <1>                0.0000
      8 C8          28.6005  36.4320  39.3095 C.2            1 <1>                0.0000
      9 C9          28.3229  35.8034  40.5226 C.2            1 <1>                0.0000
     10 C10         27.0493  35.8570  40.9030 C.2            1 <1>                0.0000
     11 S11         26.1028  36.7337  39.7087 S.3            1 <1>                0.0000
     12 C12         27.5315  36.9986  38.7183 C.2            1 <1>                0.0000
     13 H13         28.7405  38.8430  37.5821 H              1 <1>                0.0000
     14 H14         32.4725  37.6680  36.8790 H              1 <1>                0.0000
     15 H15         29.0839  35.3100  41.1088 H              1 <1>                0.0000
     16 H16         26.6549  35.4253  41.8111 H              1 <1>                0.0000
     17 H17         27.5483  37.5303  37.7784 H              1 <1>                0.0000
     18 H18         32.8987  35.5298  38.1712 H              1 <1>                0.0000
@<TRIPOS>BOND
    1    1    2 2     
    2    2    3 1     
    3    2   13 1     
    4    3    4 2     
    5    3    7 1     
    6    4    5 1     
    7    4   14 1     
    8    5    6 1     
    9    5   18 1     
   10    6    7 2     
   11    7    8 1     
   12    8    9 1     
   13    8   12 2     
   14    9   10 2     
   15    9   15 1     
   16   10   11 1     
   17   10   16 1     
   18   11   12 1     
   19   12   17 1     
@<TRIPOS>SUBSTRUCTURE
      1 ****           1
@<TRIPOS>SET
DONOR_HYDROGENS      STATIC     ATOMS    <user>   **** ""
1 18
ATOM$RED        STATIC     ATOMS    COLORGROUP SYSTEM
1 18
@<TRIPOS>COMMENT
> <Gold.Version>
2022.2.0

> <Gold.Id.Protein>
1qkm|1qkm_protein|mol2

> <Gold.Protein.RotatedTorsions>
[  496  491  490  487 ] final -173.72 input  -89.99 | X-H torsion

> <Gold.Protein.ActiveResidues>
 MET295  LEU298  THR299  LEU301  ALA302  GLU305  TRP335  MET336  LEU339  MET340 
 GLY342  LEU343  ARG346  PHE356  ILE373  ILE376  PHE377  LEU380  LYS471  GLY472 
 MET473  HIS475  LEU476  LEU477  ASN478  MET479  VAL484  VAL487 

> <Gold.Protein.RotatedAtoms>
   37.3112   33.5531   40.8199 H   0  0  0  0  0  0  0  0  0  0  0  0  # atno 496  bound_to 491 

> <Gold.Score>
     Score     S(PLP)   S(hbond)     S(cho)   S(metal)  DE(clash)   DE(tors)     intcor
     39.80     -37.38       0.00       1.00       0.00       0.00       0.29       0.00

> <Gold.PLP.Fitness>
39.7954

> <Gold.PLP.PLP>
-37.3835

> <Gold.PLP.part.hbond>
0.0000

> <Gold.PLP.part.metal>
0.0000

> <Gold.PLP.part.buried>
-4.0554

> <Gold.PLP.part.nonpolar>
-33.7943

> <Gold.PLP.part.repulsive>
0.1356

> <Gold.PLP.ligand.clash>
0.0000

> <Gold.PLP.ligand.torsion>
0.2941

> <Gold.PLP.Chemscore.Hbond>
0.0000

> <Gold.PLP.Chemscore.CHOScore>
1.0000

> <Gold.PLP.Chemscore.Metal>
0.0000

> <Gold.Chemscore.Hbonds>
donor molecule, donor type, donor heavy atom, donor atom, acceptor molecule, acceptor atom, score
      L1  C    10    16       P1   582  1.00

> <Gold.PLP.Chemscore.Internal.Correction>
0.0002

