#       Name:                EN300-156846_i001
#       Creating user name   aseyller
#       Creation time:       Fri Apr 21 19:36:14 2023


#       File generated by GOLD software.
#

@<TRIPOS>MOLECULE
EN300-156846_i001|benzaldehydes|mol2|873|dock19
    18    19     1
SMALL
USER_CHARGES


@<TRIPOS>ATOM
      1 O1          30.5408  39.1635  36.3315 O.2            1 <1>                0.0000
      2 C2          30.0174  38.5158  37.2141 C.2            1 <1>                0.0000
      3 C3          30.7013  37.3453  37.7671 C.2            1 <1>                0.0000
      4 C4          31.9617  36.8823  37.4283 C.2            1 <1>                0.0000
      5 N5          32.2092  35.7906  38.1640 N.pl3          1 <1>                0.0000
      6 N6          31.1177  35.5221  38.9943 N.2            1 <1>                0.0000
      7 C7          30.1907  36.4312  38.7966 C.2            1 <1>                0.0000
      8 C8          28.8758  36.5130  39.4756 C.2            1 <1>                0.0000
      9 C9          27.7205  36.9559  38.8330 C.2            1 <1>                0.0000
     10 C10         26.6267  36.9655  39.5900 C.2            1 <1>                0.0000
     11 S11         27.0121  36.3967  41.2083 S.3            1 <1>                0.0000
     12 C12         28.6967  36.1604  40.7629 C.2            1 <1>                0.0000
     13 H13         29.0490  38.8051  37.5946 H              1 <1>                0.0000
     14 H14         32.6265  37.3226  36.7000 H              1 <1>                0.0000
     15 H15         27.7141  37.2677  37.7990 H              1 <1>                0.0000
     16 H16         25.6469  37.2773  39.2595 H              1 <1>                0.0000
     17 H17         29.4697  35.7930  41.4215 H              1 <1>                0.0000
     18 H18         33.0237  35.2653  38.1260 H              1 <1>                0.0000
@<TRIPOS>BOND
    1    1    2 2     
    2    2    3 1     
    3    2   13 1     
    4    3    4 2     
    5    3    7 1     
    6    4    5 1     
    7    4   14 1     
    8    5    6 1     
    9    5   18 1     
   10    6    7 2     
   11    7    8 1     
   12    8    9 1     
   13    8   12 2     
   14    9   10 2     
   15    9   15 1     
   16   10   11 1     
   17   10   16 1     
   18   11   12 1     
   19   12   17 1     
@<TRIPOS>SUBSTRUCTURE
      1 ****           1
@<TRIPOS>SET
DONOR_HYDROGENS      STATIC     ATOMS    <user>   **** ""
1 18
ATOM$RED        STATIC     ATOMS    COLORGROUP SYSTEM
1 18
@<TRIPOS>COMMENT
> <Gold.Version>
2022.2.0

> <Gold.Id.Protein>
1qkm|1qkm_protein|mol2

> <Gold.Protein.RotatedTorsions>
[  496  491  490  487 ] final -151.78 input  -89.99 | X-H torsion

> <Gold.Protein.ActiveResidues>
 MET295  LEU298  THR299  LEU301  ALA302  GLU305  TRP335  MET336  LEU339  MET340 
 GLY342  LEU343  ARG346  PHE356  ILE373  ILE376  PHE377  LEU380  LYS471  GLY472 
 MET473  HIS475  LEU476  LEU477  ASN478  MET479  VAL484  VAL487 

> <Gold.Protein.RotatedAtoms>
   37.2401   33.8921   40.7253 H   0  0  0  0  0  0  0  0  0  0  0  0  # atno 496  bound_to 491 

> <Gold.Score>
     Score     S(PLP)   S(hbond)     S(cho)   S(metal)  DE(clash)   DE(tors)     intcor
     39.31     -37.28       0.00       1.00       0.00       0.00       0.49       0.00

> <Gold.PLP.Fitness>
39.3055

> <Gold.PLP.PLP>
-37.2844

> <Gold.PLP.part.hbond>
0.0000

> <Gold.PLP.part.metal>
0.0000

> <Gold.PLP.part.buried>
-4.0043

> <Gold.PLP.part.nonpolar>
-33.8374

> <Gold.PLP.part.repulsive>
0.1480

> <Gold.PLP.ligand.clash>
0.0000

> <Gold.PLP.ligand.torsion>
0.4895

> <Gold.PLP.Chemscore.Hbond>
0.0000

> <Gold.PLP.Chemscore.CHOScore>
1.0000

> <Gold.PLP.Chemscore.Metal>
0.0000

> <Gold.Chemscore.Hbonds>
donor molecule, donor type, donor heavy atom, donor atom, acceptor molecule, acceptor atom, score
      L1  C    12    17       P1   470  1.00

> <Gold.PLP.Chemscore.Internal.Correction>
0.0002

