#       Name:                EN300-156846_i001
#       Creating user name   aseyller
#       Creation time:       Fri Apr 21 19:36:07 2023


#       File generated by GOLD software.
#

@<TRIPOS>MOLECULE
EN300-156846_i001|benzaldehydes|mol2|873|dock1
    18    19     1
SMALL
USER_CHARGES


@<TRIPOS>ATOM
      1 O1          26.7907  38.2017  37.9474 O.2            1 <1>                0.0000
      2 C2          26.2256  37.2298  38.4040 C.2            1 <1>                0.0000
      3 C3          26.6334  36.6884  39.7017 C.2            1 <1>                0.0000
      4 C4          25.8124  36.4136  40.7825 C.2            1 <1>                0.0000
      5 N5          26.5802  35.9326  41.7691 N.pl3          1 <1>                0.0000
      6 N6          27.9128  35.8847  41.3512 N.2            1 <1>                0.0000
      7 C7          27.9938  36.3222  40.1155 C.2            1 <1>                0.0000
      8 C8          29.2251  36.4345  39.2980 C.2            1 <1>                0.0000
      9 C9          29.4065  37.4302  38.3393 C.2            1 <1>                0.0000
     10 C10         30.5707  37.3847  37.6973 C.2            1 <1>                0.0000
     11 S11         31.5306  36.0365  38.2904 S.3            1 <1>                0.0000
     12 C12         30.2637  35.5865  39.4238 C.2            1 <1>                0.0000
     13 H13         25.4190  36.7667  37.8551 H              1 <1>                0.0000
     14 H14         24.7434  36.5614  40.8230 H              1 <1>                0.0000
     15 H15         28.6585  38.1814  38.1330 H              1 <1>                0.0000
     16 H16         30.8803  38.0738  36.9254 H              1 <1>                0.0000
     17 H17         30.3096  34.7554  40.1119 H              1 <1>                0.0000
     18 H18         26.2593  35.6587  42.6426 H              1 <1>                0.0000
@<TRIPOS>BOND
    1    1    2 2     
    2    2    3 1     
    3    2   13 1     
    4    3    4 2     
    5    3    7 1     
    6    4    5 1     
    7    4   14 1     
    8    5    6 1     
    9    5   18 1     
   10    6    7 2     
   11    7    8 1     
   12    8    9 1     
   13    8   12 2     
   14    9   10 2     
   15    9   15 1     
   16   10   11 1     
   17   10   16 1     
   18   11   12 1     
   19   12   17 1     
@<TRIPOS>SUBSTRUCTURE
      1 ****           1
@<TRIPOS>SET
DONOR_HYDROGENS      STATIC     ATOMS    <user>   **** ""
1 18
ATOM$RED        STATIC     ATOMS    COLORGROUP SYSTEM
1 18
@<TRIPOS>COMMENT
> <Gold.Version>
2022.2.0

> <Gold.Id.Protein>
1qkm|1qkm_protein|mol2

> <Gold.Protein.RotatedTorsions>
[  496  491  490  487 ] final -176.98 input  -89.99 | X-H torsion

> <Gold.Protein.ActiveResidues>
 MET295  LEU298  THR299  LEU301  ALA302  GLU305  TRP335  MET336  LEU339  MET340 
 GLY342  LEU343  ARG346  PHE356  ILE373  ILE376  PHE377  LEU380  LYS471  GLY472 
 MET473  HIS475  LEU476  LEU477  ASN478  MET479  VAL484  VAL487 

> <Gold.Protein.RotatedAtoms>
   37.3155   33.5051   40.8435 H   0  0  0  0  0  0  0  0  0  0  0  0  # atno 496  bound_to 491 

> <Gold.Score>
     Score     S(PLP)   S(hbond)     S(cho)   S(metal)  DE(clash)   DE(tors)     intcor
     44.71     -38.40       1.00       1.69       0.00       0.00       0.88       0.00

> <Gold.PLP.Fitness>
44.7133

> <Gold.PLP.PLP>
-38.3969

> <Gold.PLP.part.hbond>
-0.8748

> <Gold.PLP.part.metal>
0.0000

> <Gold.PLP.part.buried>
-3.0597

> <Gold.PLP.part.nonpolar>
-35.3109

> <Gold.PLP.part.repulsive>
0.1872

> <Gold.PLP.ligand.clash>
0.0000

> <Gold.PLP.ligand.torsion>
0.8831

> <Gold.PLP.Chemscore.Hbond>
1.0000

> <Gold.PLP.Chemscore.CHOScore>
1.6929

> <Gold.PLP.Chemscore.Metal>
0.0000

> <Gold.Chemscore.Hbonds>
donor molecule, donor type, donor heavy atom, donor atom, acceptor molecule, acceptor atom, score
      L1  H     5    18       P1   582  1.00
      L1  C     4    14       P1  1131  1.00
      L1  C    12    17       P1   470  0.69

> <Gold.PLP.Chemscore.Internal.Correction>
0.0039

