#       Name:                EN300-156846_i001
#       Creating user name   aseyller
#       Creation time:       Fri Apr 21 19:36:14 2023


#       File generated by GOLD software.
#

@<TRIPOS>MOLECULE
EN300-156846_i001|benzaldehydes|mol2|873|dock18
    18    19     1
SMALL
USER_CHARGES


@<TRIPOS>ATOM
      1 O1          29.9564  38.6861  36.3568 O.2            1 <1>                0.0000
      2 C2          29.2703  38.1735  37.2165 C.2            1 <1>                0.0000
      3 C3          29.8177  37.0977  38.0451 C.2            1 <1>                0.0000
      4 C4          31.0799  36.5360  37.9502 C.2            1 <1>                0.0000
      5 N5          31.1780  35.5863  38.8897 N.pl3          1 <1>                0.0000
      6 N6          29.9847  35.5112  39.6131 N.2            1 <1>                0.0000
      7 C7          29.1405  36.4029  39.1472 C.2            1 <1>                0.0000
      8 C8          27.7631  36.6531  39.6342 C.2            1 <1>                0.0000
      9 C9          27.3257  36.2578  40.8976 C.2            1 <1>                0.0000
     10 C10         26.0603  36.5621  41.1731 C.2            1 <1>                0.0000
     11 S11         25.3312  37.3916  39.8052 S.3            1 <1>                0.0000
     12 C12         26.8322  37.2860  38.8952 C.2            1 <1>                0.0000
     13 H13         28.2574  38.5138  37.3733 H              1 <1>                0.0000
     14 H14         31.8482  36.8137  37.2439 H              1 <1>                0.0000
     15 H15         27.9654  35.7433  41.5992 H              1 <1>                0.0000
     16 H16         25.5555  36.3330  42.1000 H              1 <1>                0.0000
     17 H17         26.9829  37.6665  37.8958 H              1 <1>                0.0000
     18 H18         31.9599  35.0336  39.0446 H              1 <1>                0.0000
@<TRIPOS>BOND
    1    1    2 2     
    2    2    3 1     
    3    2   13 1     
    4    3    4 2     
    5    3    7 1     
    6    4    5 1     
    7    4   14 1     
    8    5    6 1     
    9    5   18 1     
   10    6    7 2     
   11    7    8 1     
   12    8    9 1     
   13    8   12 2     
   14    9   10 2     
   15    9   15 1     
   16   10   11 1     
   17   10   16 1     
   18   11   12 1     
   19   12   17 1     
@<TRIPOS>SUBSTRUCTURE
      1 ****           1
@<TRIPOS>SET
DONOR_HYDROGENS      STATIC     ATOMS    <user>   **** ""
1 18
ATOM$RED        STATIC     ATOMS    COLORGROUP SYSTEM
1 18
@<TRIPOS>COMMENT
> <Gold.Version>
2022.2.0

> <Gold.Id.Protein>
1qkm|1qkm_protein|mol2

> <Gold.Protein.RotatedTorsions>
[  496  491  490  487 ] final   45.68 input  -89.99 | X-H torsion

> <Gold.Protein.ActiveResidues>
 MET295  LEU298  THR299  LEU301  ALA302  GLU305  TRP335  MET336  LEU339  MET340 
 GLY342  LEU343  ARG346  PHE356  ILE373  ILE376  PHE377  LEU380  LYS471  GLY472 
 MET473  HIS475  LEU476  LEU477  ASN478  MET479  VAL484  VAL487 

> <Gold.Protein.RotatedAtoms>
   36.4416   33.5168   42.3679 H   0  0  0  0  0  0  0  0  0  0  0  0  # atno 496  bound_to 491 

> <Gold.Score>
     Score     S(PLP)   S(hbond)     S(cho)   S(metal)  DE(clash)   DE(tors)     intcor
     39.24     -36.59       0.00       1.00       0.00       0.00       0.17       0.00

> <Gold.PLP.Fitness>
39.2380

> <Gold.PLP.PLP>
-36.5856

> <Gold.PLP.part.hbond>
-0.1972

> <Gold.PLP.part.metal>
0.0000

> <Gold.PLP.part.buried>
-3.2392

> <Gold.PLP.part.nonpolar>
-34.1708

> <Gold.PLP.part.repulsive>
0.3560

> <Gold.PLP.ligand.clash>
0.0000

> <Gold.PLP.ligand.torsion>
0.1691

> <Gold.PLP.Chemscore.Hbond>
0.0000

> <Gold.PLP.Chemscore.CHOScore>
0.9968

> <Gold.PLP.Chemscore.Metal>
0.0000

> <Gold.Chemscore.Hbonds>
donor molecule, donor type, donor heavy atom, donor atom, acceptor molecule, acceptor atom, score
      L1  C    10    16       P1   582  1.00

> <Gold.PLP.Chemscore.Internal.Correction>
0.0002

