#       Name:                EN300-156846_i001
#       Creating user name   aseyller
#       Creation time:       Fri Apr 21 19:36:11 2023


#       File generated by GOLD software.
#

@<TRIPOS>MOLECULE
EN300-156846_i001|benzaldehydes|mol2|873|dock14
    18    19     1
SMALL
USER_CHARGES


@<TRIPOS>ATOM
      1 O1          29.8604  39.5048  36.5674 O.2            1 <1>                0.0000
      2 C2          30.0202  38.9236  35.5143 C.2            1 <1>                0.0000
      3 C3          31.2805  38.2285  35.2456 C.2            1 <1>                0.0000
      4 C4          32.1361  38.4423  34.1780 C.2            1 <1>                0.0000
      5 N5          33.1707  37.6013  34.3066 N.pl3          1 <1>                0.0000
      6 N6          33.0097  36.8254  35.4576 N.2            1 <1>                0.0000
      7 C7          31.8933  37.1698  36.0578 C.2            1 <1>                0.0000
      8 C8          31.3505  36.5927  37.3104 C.2            1 <1>                0.0000
      9 C9          31.9195  35.4870  37.9408 C.2            1 <1>                0.0000
     10 C10         31.3060  35.1004  39.0561 C.2            1 <1>                0.0000
     11 S11         29.9317  36.1482  39.3788 S.3            1 <1>                0.0000
     12 C12         30.2702  37.0963  37.9371 C.2            1 <1>                0.0000
     13 H13         29.2312  38.9152  34.7769 H              1 <1>                0.0000
     14 H14         31.9942  39.1591  33.3828 H              1 <1>                0.0000
     15 H15         32.7920  34.9823  37.5529 H              1 <1>                0.0000
     16 H16         31.6074  34.2659  39.6719 H              1 <1>                0.0000
     17 H17         29.6974  37.9488  37.6032 H              1 <1>                0.0000
     18 H18         33.9193  37.5400  33.6928 H              1 <1>                0.0000
@<TRIPOS>BOND
    1    1    2 2     
    2    2    3 1     
    3    2   13 1     
    4    3    4 2     
    5    3    7 1     
    6    4    5 1     
    7    4   14 1     
    8    5    6 1     
    9    5   18 1     
   10    6    7 2     
   11    7    8 1     
   12    8    9 1     
   13    8   12 2     
   14    9   10 2     
   15    9   15 1     
   16   10   11 1     
   17   10   16 1     
   18   11   12 1     
   19   12   17 1     
@<TRIPOS>SUBSTRUCTURE
      1 ****           1
@<TRIPOS>SET
DONOR_HYDROGENS      STATIC     ATOMS    <user>   **** ""
1 18
ATOM$RED        STATIC     ATOMS    COLORGROUP SYSTEM
1 18
@<TRIPOS>COMMENT
> <Gold.Version>
2022.2.0

> <Gold.Id.Protein>
1qkm|1qkm_protein|mol2

> <Gold.Protein.RotatedTorsions>
[  496  491  490  487 ] final    6.00 input  -89.99 | X-H torsion

> <Gold.Protein.ActiveResidues>
 MET295  LEU298  THR299  LEU301  ALA302  GLU305  TRP335  MET336  LEU339  MET340 
 GLY342  LEU343  ARG346  PHE356  ILE373  ILE376  PHE377  LEU380  LYS471  GLY472 
 MET473  HIS475  LEU476  LEU477  ASN478  MET479  VAL484  VAL487 

> <Gold.Protein.RotatedAtoms>
   36.2659   34.1264   42.2816 H   0  0  0  0  0  0  0  0  0  0  0  0  # atno 496  bound_to 491 

> <Gold.Score>
     Score     S(PLP)   S(hbond)     S(cho)   S(metal)  DE(clash)   DE(tors)     intcor
     39.38     -35.95       0.96       0.55       0.00       0.00       0.55       0.00

> <Gold.PLP.Fitness>
39.3839

> <Gold.PLP.PLP>
-35.9491

> <Gold.PLP.part.hbond>
-1.0000

> <Gold.PLP.part.metal>
0.0000

> <Gold.PLP.part.buried>
-3.0832

> <Gold.PLP.part.nonpolar>
-31.7666

> <Gold.PLP.part.repulsive>
0.1701

> <Gold.PLP.ligand.clash>
0.0000

> <Gold.PLP.ligand.torsion>
0.5516

> <Gold.PLP.Chemscore.Hbond>
0.9600

> <Gold.PLP.Chemscore.CHOScore>
0.5526

> <Gold.PLP.Chemscore.Metal>
0.0000

> <Gold.Chemscore.Hbonds>
donor molecule, donor type, donor heavy atom, donor atom, acceptor molecule, acceptor atom, score
      L1  H     5    18       P1  3229  0.96
      L1  C    10    16       P1   470  0.55

> <Gold.PLP.Chemscore.Internal.Correction>
0.0002

