#       Name:                EN300-156846_i001
#       Creating user name   aseyller
#       Creation time:       Fri Apr 21 19:36:08 2023


#       File generated by GOLD software.
#

@<TRIPOS>MOLECULE
EN300-156846_i001|benzaldehydes|mol2|873|dock5
    18    19     1
SMALL
USER_CHARGES


@<TRIPOS>ATOM
      1 O1          29.3882  36.9964  41.9629 O.2            1 <1>                0.0000
      2 C2          28.3812  36.3206  42.0035 C.2            1 <1>                0.0000
      3 C3          27.3465  36.4865  40.9809 C.2            1 <1>                0.0000
      4 C4          25.9762  36.5022  41.1802 C.2            1 <1>                0.0000
      5 N5          25.3903  36.6767  39.9884 N.pl3          1 <1>                0.0000
      6 N6          26.3650  36.7779  38.9922 N.2            1 <1>                0.0000
      7 C7          27.5544  36.6761  39.5398 C.2            1 <1>                0.0000
      8 C8          28.8576  36.7317  38.8360 C.2            1 <1>                0.0000
      9 C9          29.0047  37.2779  37.5617 C.2            1 <1>                0.0000
     10 C10         30.2438  37.2475  37.0786 C.2            1 <1>                0.0000
     11 S11         31.3254  36.5024  38.2473 S.3            1 <1>                0.0000
     12 C12         29.9988  36.2639  39.3766 C.2            1 <1>                0.0000
     13 H13         28.2499  35.5937  42.7914 H              1 <1>                0.0000
     14 H14         25.4700  36.3925  42.1279 H              1 <1>                0.0000
     15 H15         28.1757  37.6938  37.0086 H              1 <1>                0.0000
     16 H16         30.5412  37.6243  36.1111 H              1 <1>                0.0000
     17 H17         30.0852  35.8084  40.3521 H              1 <1>                0.0000
     18 H18         24.4330  36.7253  39.8393 H              1 <1>                0.0000
@<TRIPOS>BOND
    1    1    2 2     
    2    2    3 1     
    3    2   13 1     
    4    3    4 2     
    5    3    7 1     
    6    4    5 1     
    7    4   14 1     
    8    5    6 1     
    9    5   18 1     
   10    6    7 2     
   11    7    8 1     
   12    8    9 1     
   13    8   12 2     
   14    9   10 2     
   15    9   15 1     
   16   10   11 1     
   17   10   16 1     
   18   11   12 1     
   19   12   17 1     
@<TRIPOS>SUBSTRUCTURE
      1 ****           1
@<TRIPOS>SET
DONOR_HYDROGENS      STATIC     ATOMS    <user>   **** ""
1 18
ATOM$RED        STATIC     ATOMS    COLORGROUP SYSTEM
1 18
@<TRIPOS>COMMENT
> <Gold.Version>
2022.2.0

> <Gold.Id.Protein>
1qkm|1qkm_protein|mol2

> <Gold.Protein.RotatedTorsions>
[  496  491  490  487 ] final   32.12 input  -89.99 | X-H torsion

> <Gold.Protein.ActiveResidues>
 MET295  LEU298  THR299  LEU301  ALA302  GLU305  TRP335  MET336  LEU339  MET340 
 GLY342  LEU343  ARG346  PHE356  ILE373  ILE376  PHE377  LEU380  LYS471  GLY472 
 MET473  HIS475  LEU476  LEU477  ASN478  MET479  VAL484  VAL487 

> <Gold.Protein.RotatedAtoms>
   36.3574   33.7223   42.3825 H   0  0  0  0  0  0  0  0  0  0  0  0  # atno 496  bound_to 491 

> <Gold.Score>
     Score     S(PLP)   S(hbond)     S(cho)   S(metal)  DE(clash)   DE(tors)     intcor
     43.05     -36.11       0.82       1.82       0.00       0.00       0.48       0.00

> <Gold.PLP.Fitness>
43.0501

> <Gold.PLP.PLP>
-36.1080

> <Gold.PLP.part.hbond>
-1.0000

> <Gold.PLP.part.metal>
0.0000

> <Gold.PLP.part.buried>
-4.1442

> <Gold.PLP.part.nonpolar>
-32.5411

> <Gold.PLP.part.repulsive>
0.7719

> <Gold.PLP.ligand.clash>
0.0000

> <Gold.PLP.ligand.torsion>
0.4802

> <Gold.PLP.Chemscore.Hbond>
0.8190

> <Gold.PLP.Chemscore.CHOScore>
1.8151

> <Gold.PLP.Chemscore.Metal>
0.0000

> <Gold.Chemscore.Hbonds>
donor molecule, donor type, donor heavy atom, donor atom, acceptor molecule, acceptor atom, score
      L1  H     5    18       P1  1131  0.82
      L1  C     4    14       P1   582  0.84
      L1  C    12    17       P1   470  0.97

> <Gold.PLP.Chemscore.Internal.Correction>
0.0002

