#       Name:                EN300-156846_i001
#       Creating user name   aseyller
#       Creation time:       Fri Apr 21 19:36:10 2023


#       File generated by GOLD software.
#

@<TRIPOS>MOLECULE
EN300-156846_i001|benzaldehydes|mol2|873|dock11
    18    19     1
SMALL
USER_CHARGES


@<TRIPOS>ATOM
      1 O1          27.5144  37.8821  37.8700 O.2            1 <1>                0.0000
      2 C2          28.6559  37.8390  37.4608 C.2            1 <1>                0.0000
      3 C3          29.6347  36.9664  38.1121 C.2            1 <1>                0.0000
      4 C4          29.4940  36.3241  39.3308 C.2            1 <1>                0.0000
      5 N5          30.6150  35.6275  39.5592 N.pl3          1 <1>                0.0000
      6 N6          31.5054  35.8019  38.4964 N.2            1 <1>                0.0000
      7 C7          30.9592  36.5921  37.6007 C.2            1 <1>                0.0000
      8 C8          31.5679  37.0307  36.3224 C.2            1 <1>                0.0000
      9 C9          32.8249  36.6017  35.8985 C.2            1 <1>                0.0000
     10 C10         33.2186  37.0924  34.7264 C.2            1 <1>                0.0000
     11 S11         31.9805  38.1574  34.0754 S.3            1 <1>                0.0000
     12 C12         30.9502  37.8721  35.4716 C.2            1 <1>                0.0000
     13 H13         28.9489  38.4411  36.6134 H              1 <1>                0.0000
     14 H14         28.6338  36.3761  39.9816 H              1 <1>                0.0000
     15 H15         33.4330  35.9229  36.4778 H              1 <1>                0.0000
     16 H16         34.1599  36.8698  34.2459 H              1 <1>                0.0000
     17 H17         29.9741  38.3079  35.6251 H              1 <1>                0.0000
     18 H18         30.7835  35.0836  40.3446 H              1 <1>                0.0000
@<TRIPOS>BOND
    1    1    2 2     
    2    2    3 1     
    3    2   13 1     
    4    3    4 2     
    5    3    7 1     
    6    4    5 1     
    7    4   14 1     
    8    5    6 1     
    9    5   18 1     
   10    6    7 2     
   11    7    8 1     
   12    8    9 1     
   13    8   12 2     
   14    9   10 2     
   15    9   15 1     
   16   10   11 1     
   17   10   16 1     
   18   11   12 1     
   19   12   17 1     
@<TRIPOS>SUBSTRUCTURE
      1 ****           1
@<TRIPOS>SET
DONOR_HYDROGENS      STATIC     ATOMS    <user>   **** ""
1 18
ATOM$RED        STATIC     ATOMS    COLORGROUP SYSTEM
1 18
@<TRIPOS>COMMENT
> <Gold.Version>
2022.2.0

> <Gold.Id.Protein>
1qkm|1qkm_protein|mol2

> <Gold.Protein.RotatedTorsions>
[  496  491  490  487 ] final   -0.27 input  -89.99 | X-H torsion

> <Gold.Protein.ActiveResidues>
 MET295  LEU298  THR299  LEU301  ALA302  GLU305  TRP335  MET336  LEU339  MET340 
 GLY342  LEU343  ARG346  PHE356  ILE373  ILE376  PHE377  LEU380  LYS471  GLY472 
 MET473  HIS475  LEU476  LEU477  ASN478  MET479  VAL484  VAL487 

> <Gold.Protein.RotatedAtoms>
   36.2596   34.2174   42.2338 H   0  0  0  0  0  0  0  0  0  0  0  0  # atno 496  bound_to 491 

> <Gold.Score>
     Score     S(PLP)   S(hbond)     S(cho)   S(metal)  DE(clash)   DE(tors)     intcor
     41.76     -36.70       0.82       0.90       0.00       0.00       0.04       0.00

> <Gold.PLP.Fitness>
41.7640

> <Gold.PLP.PLP>
-36.6972

> <Gold.PLP.part.hbond>
-1.0000

> <Gold.PLP.part.metal>
0.0000

> <Gold.PLP.part.buried>
-2.8662

> <Gold.PLP.part.nonpolar>
-32.9999

> <Gold.PLP.part.repulsive>
0.1357

> <Gold.PLP.ligand.clash>
0.0000

> <Gold.PLP.ligand.torsion>
0.0374

> <Gold.PLP.Chemscore.Hbond>
0.8160

> <Gold.PLP.Chemscore.CHOScore>
0.8978

> <Gold.PLP.Chemscore.Metal>
0.0000

> <Gold.Chemscore.Hbonds>
donor molecule, donor type, donor heavy atom, donor atom, acceptor molecule, acceptor atom, score
      L1  H     5    18       P1   470  0.82
      L1  C    10    16       P1  3229  0.90

> <Gold.PLP.Chemscore.Internal.Correction>
0.0002

