#       Name:                EN300-156846_i001
#       Creating user name   aseyller
#       Creation time:       Fri Apr 21 19:36:08 2023


#       File generated by GOLD software.
#

@<TRIPOS>MOLECULE
EN300-156846_i001|benzaldehydes|mol2|873|dock4
    18    19     1
SMALL
USER_CHARGES


@<TRIPOS>ATOM
      1 O1          30.0157  39.2002  35.6749 O.2            1 <1>                0.0000
      2 C2          30.3263  38.0369  35.8250 C.2            1 <1>                0.0000
      3 C3          31.6472  37.5710  35.3987 C.2            1 <1>                0.0000
      4 C4          32.4062  38.0687  34.3528 C.2            1 <1>                0.0000
      5 N5          33.5448  37.3652  34.3011 N.pl3          1 <1>                0.0000
      6 N6          33.5497  36.3980  35.3097 N.2            1 <1>                0.0000
      7 C7          32.4349  36.4867  35.9985 C.2            1 <1>                0.0000
      8 C8          32.0424  35.6458  37.1542 C.2            1 <1>                0.0000
      9 C9          31.2345  36.1148  38.1891 C.2            1 <1>                0.0000
     10 C10         30.9793  35.2276  39.1469 C.2            1 <1>                0.0000
     11 S11         31.7729  33.7026  38.7790 S.3            1 <1>                0.0000
     12 C12         32.4319  34.3638  37.2889 C.2            1 <1>                0.0000
     13 H13         29.6300  37.3460  36.2771 H              1 <1>                0.0000
     14 H14         32.1291  38.8795  33.6954 H              1 <1>                0.0000
     15 H15         30.8455  37.1220  38.2117 H              1 <1>                0.0000
     16 H16         30.3745  35.4165  40.0216 H              1 <1>                0.0000
     17 H17         33.0565  33.8258  36.5911 H              1 <1>                0.0000
     18 H18         34.2588  37.5059  33.6597 H              1 <1>                0.0000
@<TRIPOS>BOND
    1    1    2 2     
    2    2    3 1     
    3    2   13 1     
    4    3    4 2     
    5    3    7 1     
    6    4    5 1     
    7    4   14 1     
    8    5    6 1     
    9    5   18 1     
   10    6    7 2     
   11    7    8 1     
   12    8    9 1     
   13    8   12 2     
   14    9   10 2     
   15    9   15 1     
   16   10   11 1     
   17   10   16 1     
   18   11   12 1     
   19   12   17 1     
@<TRIPOS>SUBSTRUCTURE
      1 ****           1
@<TRIPOS>SET
DONOR_HYDROGENS      STATIC     ATOMS    <user>   **** ""
1 18
ATOM$RED        STATIC     ATOMS    COLORGROUP SYSTEM
1 18
@<TRIPOS>COMMENT
> <Gold.Version>
2022.2.0

> <Gold.Id.Protein>
1qkm|1qkm_protein|mol2

> <Gold.Protein.RotatedTorsions>
[  496  491  490  487 ] final  -79.18 input  -89.99 | X-H torsion

> <Gold.Protein.ActiveResidues>
 MET295  LEU298  THR299  LEU301  ALA302  GLU305  TRP335  MET336  LEU339  MET340 
 GLY342  LEU343  ARG346  PHE356  ILE373  ILE376  PHE377  LEU380  LYS471  GLY472 
 MET473  HIS475  LEU476  LEU477  ASN478  MET479  VAL484  VAL487 

> <Gold.Protein.RotatedAtoms>
   36.6586   34.7094   41.2161 H   0  0  0  0  0  0  0  0  0  0  0  0  # atno 496  bound_to 491 

> <Gold.Score>
     Score     S(PLP)   S(hbond)     S(cho)   S(metal)  DE(clash)   DE(tors)     intcor
     41.91     -38.41       1.00       0.56       0.00       0.00       0.59       0.00

> <Gold.PLP.Fitness>
41.9103

> <Gold.PLP.PLP>
-38.4052

> <Gold.PLP.part.hbond>
-1.0000

> <Gold.PLP.part.metal>
0.0000

> <Gold.PLP.part.buried>
-3.3708

> <Gold.PLP.part.nonpolar>
-34.4114

> <Gold.PLP.part.repulsive>
0.2080

> <Gold.PLP.ligand.clash>
0.0000

> <Gold.PLP.ligand.torsion>
0.5908

> <Gold.PLP.Chemscore.Hbond>
1.0000

> <Gold.PLP.Chemscore.CHOScore>
0.5622

> <Gold.PLP.Chemscore.Metal>
0.0000

> <Gold.Chemscore.Hbonds>
donor molecule, donor type, donor heavy atom, donor atom, acceptor molecule, acceptor atom, score
      L1  H     5    18       P1  3229  1.00
      L1  C    10    16       P1   470  0.56

> <Gold.PLP.Chemscore.Internal.Correction>
0.0002

