#       Name:                EN300-156846_i001
#       Creating user name   aseyller
#       Creation time:       Fri Apr 21 19:36:07 2023


#       File generated by GOLD software.
#

@<TRIPOS>MOLECULE
EN300-156846_i001|benzaldehydes|mol2|873|dock3
    18    19     1
SMALL
USER_CHARGES


@<TRIPOS>ATOM
      1 O1          32.0222  33.5111  38.2230 O.2            1 <1>                0.0000
      2 C2          31.4128  34.3878  38.7996 C.2            1 <1>                0.0000
      3 C3          31.3408  35.7311  38.2216 C.2            1 <1>                0.0000
      4 C4          32.2930  36.3453  37.4256 C.2            1 <1>                0.0000
      5 N5          31.8391  37.5654  37.1103 N.pl3          1 <1>                0.0000
      6 N6          30.5855  37.7692  37.6932 N.2            1 <1>                0.0000
      7 C7          30.2416  36.6941  38.3647 C.2            1 <1>                0.0000
      8 C8          28.9878  36.4948  39.1295 C.2            1 <1>                0.0000
      9 C9          27.7538  36.9771  38.6953 C.2            1 <1>                0.0000
     10 C10         26.7314  36.7085  39.5029 C.2            1 <1>                0.0000
     11 S11         27.2930  35.8021  40.9007 S.3            1 <1>                0.0000
     12 C12         28.9450  35.8280  40.2987 C.2            1 <1>                0.0000
     13 H13         30.9198  34.1762  39.7369 H              1 <1>                0.0000
     14 H14         33.2344  35.9170  37.1148 H              1 <1>                0.0000
     15 H15         27.6369  37.5273  37.7734 H              1 <1>                0.0000
     16 H16         25.7078  37.0042  39.3263 H              1 <1>                0.0000
     17 H17         29.7953  35.3815  40.7927 H              1 <1>                0.0000
     18 H18         32.3099  38.2108  36.5600 H              1 <1>                0.0000
@<TRIPOS>BOND
    1    1    2 2     
    2    2    3 1     
    3    2   13 1     
    4    3    4 2     
    5    3    7 1     
    6    4    5 1     
    7    4   14 1     
    8    5    6 1     
    9    5   18 1     
   10    6    7 2     
   11    7    8 1     
   12    8    9 1     
   13    8   12 2     
   14    9   10 2     
   15    9   15 1     
   16   10   11 1     
   17   10   16 1     
   18   11   12 1     
   19   12   17 1     
@<TRIPOS>SUBSTRUCTURE
      1 ****           1
@<TRIPOS>SET
DONOR_HYDROGENS      STATIC     ATOMS    <user>   **** ""
1 18
ATOM$RED        STATIC     ATOMS    COLORGROUP SYSTEM
1 18
@<TRIPOS>COMMENT
> <Gold.Version>
2022.2.0

> <Gold.Id.Protein>
1qkm|1qkm_protein|mol2

> <Gold.Protein.RotatedTorsions>
[  496  491  490  487 ] final  145.82 input  -89.99 | X-H torsion

> <Gold.Protein.ActiveResidues>
 MET295  LEU298  THR299  LEU301  ALA302  GLU305  TRP335  MET336  LEU339  MET340 
 GLY342  LEU343  ARG346  PHE356  ILE373  ILE376  PHE377  LEU380  LYS471  GLY472 
 MET473  HIS475  LEU476  LEU477  ASN478  MET479  VAL484  VAL487 

> <Gold.Protein.RotatedAtoms>
   37.2442   33.0684   41.2510 H   0  0  0  0  0  0  0  0  0  0  0  0  # atno 496  bound_to 491 

> <Gold.Score>
     Score     S(PLP)   S(hbond)     S(cho)   S(metal)  DE(clash)   DE(tors)     intcor
     40.62     -39.12       0.00       1.00       0.00       0.00       0.75       0.00

> <Gold.PLP.Fitness>
40.6217

> <Gold.PLP.PLP>
-39.1168

> <Gold.PLP.part.hbond>
0.0000

> <Gold.PLP.part.metal>
0.0000

> <Gold.PLP.part.buried>
-4.2019

> <Gold.PLP.part.nonpolar>
-35.4611

> <Gold.PLP.part.repulsive>
0.0434

> <Gold.PLP.ligand.clash>
0.0000

> <Gold.PLP.ligand.torsion>
0.7477

> <Gold.PLP.Chemscore.Hbond>
0.0000

> <Gold.PLP.Chemscore.CHOScore>
1.0000

> <Gold.PLP.Chemscore.Metal>
0.0000

> <Gold.Chemscore.Hbonds>
donor molecule, donor type, donor heavy atom, donor atom, acceptor molecule, acceptor atom, score
      L1  C    12    17       P1   470  1.00

> <Gold.PLP.Chemscore.Internal.Correction>
0.0002

