#       Name:                EN300-156846_i001
#       Creating user name   aseyller
#       Creation time:       Fri Apr 21 19:36:12 2023


#       File generated by GOLD software.
#

@<TRIPOS>MOLECULE
EN300-156846_i001|benzaldehydes|mol2|873|dock15
    18    19     1
SMALL
USER_CHARGES


@<TRIPOS>ATOM
      1 O1          32.0683  35.8253  38.2096 O.2            1 <1>                0.0000
      2 C2          30.9354  36.1104  38.5375 C.2            1 <1>                0.0000
      3 C3          30.1789  37.1019  37.7705 C.2            1 <1>                0.0000
      4 C4          30.6358  37.8463  36.6960 C.2            1 <1>                0.0000
      5 N5          29.6320  38.6321  36.2847 N.pl3          1 <1>                0.0000
      6 N6          28.5045  38.4152  37.0812 N.2            1 <1>                0.0000
      7 C7          28.7819  37.5011  37.9826 C.2            1 <1>                0.0000
      8 C8          27.8631  36.9795  39.0222 C.2            1 <1>                0.0000
      9 C9          28.2874  36.1429  40.0536 C.2            1 <1>                0.0000
     10 C10         27.3321  35.7685  40.9004 C.2            1 <1>                0.0000
     11 S11         25.7956  36.4769  40.4227 S.3            1 <1>                0.0000
     12 C12         26.5505  37.2789  39.0520 C.2            1 <1>                0.0000
     13 H13         30.4835  35.6298  39.3926 H              1 <1>                0.0000
     14 H14         31.6257  37.8018  36.2663 H              1 <1>                0.0000
     15 H15         29.3136  35.8229  40.1573 H              1 <1>                0.0000
     16 H16         27.4787  35.1241  41.7546 H              1 <1>                0.0000
     17 H17         26.0393  37.9109  38.3409 H              1 <1>                0.0000
     18 H18         29.6805  39.2578  35.5451 H              1 <1>                0.0000
@<TRIPOS>BOND
    1    1    2 2     
    2    2    3 1     
    3    2   13 1     
    4    3    4 2     
    5    3    7 1     
    6    4    5 1     
    7    4   14 1     
    8    5    6 1     
    9    5   18 1     
   10    6    7 2     
   11    7    8 1     
   12    8    9 1     
   13    8   12 2     
   14    9   10 2     
   15    9   15 1     
   16   10   11 1     
   17   10   16 1     
   18   11   12 1     
   19   12   17 1     
@<TRIPOS>SUBSTRUCTURE
      1 ****           1
@<TRIPOS>SET
DONOR_HYDROGENS      STATIC     ATOMS    <user>   **** ""
1 18
ATOM$RED        STATIC     ATOMS    COLORGROUP SYSTEM
1 18
@<TRIPOS>COMMENT
> <Gold.Version>
2022.2.0

> <Gold.Id.Protein>
1qkm|1qkm_protein|mol2

> <Gold.Protein.RotatedTorsions>
[  496  491  490  487 ] final -115.61 input  -89.99 | X-H torsion

> <Gold.Protein.ActiveResidues>
 MET295  LEU298  THR299  LEU301  ALA302  GLU305  TRP335  MET336  LEU339  MET340 
 GLY342  LEU343  ARG346  PHE356  ILE373  ILE376  PHE377  LEU380  LYS471  GLY472 
 MET473  HIS475  LEU476  LEU477  ASN478  MET479  VAL484  VAL487 

> <Gold.Protein.RotatedAtoms>
   36.9891   34.4107   40.8299 H   0  0  0  0  0  0  0  0  0  0  0  0  # atno 496  bound_to 491 

> <Gold.Score>
     Score     S(PLP)   S(hbond)     S(cho)   S(metal)  DE(clash)   DE(tors)     intcor
     39.56     -36.63       0.00       1.00       0.00       0.00       0.04       0.00

> <Gold.PLP.Fitness>
39.5604

> <Gold.PLP.PLP>
-36.6315

> <Gold.PLP.part.hbond>
0.0000

> <Gold.PLP.part.metal>
0.0000

> <Gold.PLP.part.buried>
-4.0515

> <Gold.PLP.part.nonpolar>
-33.3571

> <Gold.PLP.part.repulsive>
0.0566

> <Gold.PLP.ligand.clash>
0.0000

> <Gold.PLP.ligand.torsion>
0.0356

> <Gold.PLP.Chemscore.Hbond>
0.0000

> <Gold.PLP.Chemscore.CHOScore>
1.0000

> <Gold.PLP.Chemscore.Metal>
0.0000

> <Gold.Chemscore.Hbonds>
donor molecule, donor type, donor heavy atom, donor atom, acceptor molecule, acceptor atom, score
      L1  C    10    16       P1   582  1.00

> <Gold.PLP.Chemscore.Internal.Correction>
0.0002

