#       Name:                EN300-156846_i001
#       Creating user name   aseyller
#       Creation time:       Fri Apr 21 19:36:08 2023


#       File generated by GOLD software.
#

@<TRIPOS>MOLECULE
EN300-156846_i001|benzaldehydes|mol2|873|dock6
    18    19     1
SMALL
USER_CHARGES


@<TRIPOS>ATOM
      1 O1          28.5773  35.5844  42.1018 O.2            1 <1>                0.0000
      2 C2          28.6337  36.1580  41.0340 C.2            1 <1>                0.0000
      3 C3          27.4014  36.5590  40.3525 C.2            1 <1>                0.0000
      4 C4          26.1045  36.3588  40.7946 C.2            1 <1>                0.0000
      5 N5          25.2745  36.8744  39.8784 N.pl3          1 <1>                0.0000
      6 N6          26.0127  37.4191  38.8243 N.2            1 <1>                0.0000
      7 C7          27.2937  37.2596  39.0666 C.2            1 <1>                0.0000
      8 C8          28.4162  37.6948  38.2020 C.2            1 <1>                0.0000
      9 C9          28.2692  38.6513  37.1985 C.2            1 <1>                0.0000
     10 C10         29.3791  38.9246  36.5178 C.2            1 <1>                0.0000
     11 S11         30.7121  37.9553  37.1296 S.3            1 <1>                0.0000
     12 C12         29.6639  37.2031  38.3244 C.2            1 <1>                0.0000
     13 H13         29.5928  36.3766  40.5883 H              1 <1>                0.0000
     14 H14         25.8138  35.8729  41.7143 H              1 <1>                0.0000
     15 H15         27.3259  39.1337  36.9893 H              1 <1>                0.0000
     16 H16         29.4504  39.6362  35.7085 H              1 <1>                0.0000
     17 H17         29.9723  36.4582  39.0431 H              1 <1>                0.0000
     18 H18         24.3063  36.8701  39.9376 H              1 <1>                0.0000
@<TRIPOS>BOND
    1    1    2 2     
    2    2    3 1     
    3    2   13 1     
    4    3    4 2     
    5    3    7 1     
    6    4    5 1     
    7    4   14 1     
    8    5    6 1     
    9    5   18 1     
   10    6    7 2     
   11    7    8 1     
   12    8    9 1     
   13    8   12 2     
   14    9   10 2     
   15    9   15 1     
   16   10   11 1     
   17   10   16 1     
   18   11   12 1     
   19   12   17 1     
@<TRIPOS>SUBSTRUCTURE
      1 ****           1
@<TRIPOS>SET
DONOR_HYDROGENS      STATIC     ATOMS    <user>   **** ""
1 18
ATOM$RED        STATIC     ATOMS    COLORGROUP SYSTEM
1 18
@<TRIPOS>COMMENT
> <Gold.Version>
2022.2.0

> <Gold.Id.Protein>
1qkm|1qkm_protein|mol2

> <Gold.Protein.RotatedTorsions>
[  496  491  490  487 ] final -117.63 input  -89.99 | X-H torsion

> <Gold.Protein.ActiveResidues>
 MET295  LEU298  THR299  LEU301  ALA302  GLU305  TRP335  MET336  LEU339  MET340 
 GLY342  LEU343  ARG346  PHE356  ILE373  ILE376  PHE377  LEU380  LYS471  GLY472 
 MET473  HIS475  LEU476  LEU477  ASN478  MET479  VAL484  VAL487 

> <Gold.Protein.RotatedAtoms>
   37.0062   34.3860   40.8158 H   0  0  0  0  0  0  0  0  0  0  0  0  # atno 496  bound_to 491 

> <Gold.Score>
     Score     S(PLP)   S(hbond)     S(cho)   S(metal)  DE(clash)   DE(tors)     intcor
     41.67     -35.96       1.00       1.00       0.00       0.00       0.14       0.00

> <Gold.PLP.Fitness>
41.6749

> <Gold.PLP.PLP>
-35.9575

> <Gold.PLP.part.hbond>
-1.3927

> <Gold.PLP.part.metal>
0.0000

> <Gold.PLP.part.buried>
-4.6460

> <Gold.PLP.part.nonpolar>
-30.8598

> <Gold.PLP.part.repulsive>
0.4012

> <Gold.PLP.ligand.clash>
0.0000

> <Gold.PLP.ligand.torsion>
0.1414

> <Gold.PLP.Chemscore.Hbond>
1.0000

> <Gold.PLP.Chemscore.CHOScore>
1.0000

> <Gold.PLP.Chemscore.Metal>
0.0000

> <Gold.Chemscore.Hbonds>
donor molecule, donor type, donor heavy atom, donor atom, acceptor molecule, acceptor atom, score
      L1  H     5    18       P1  1131  1.00
      L1  C     4    14       P1   582  1.00

> <Gold.PLP.Chemscore.Internal.Correction>
0.0002

