#       Name:                EN300-156846_i001
#       Creating user name   aseyller
#       Creation time:       Fri Apr 21 19:36:12 2023


#       File generated by GOLD software.
#

@<TRIPOS>MOLECULE
EN300-156846_i001|benzaldehydes|mol2|873|dock16
    18    19     1
SMALL
USER_CHARGES


@<TRIPOS>ATOM
      1 O1          27.5053  37.8998  37.7369 O.2            1 <1>                0.0000
      2 C2          27.0110  36.8930  38.1999 C.2            1 <1>                0.0000
      3 C3          27.5092  36.3474  39.4639 C.2            1 <1>                0.0000
      4 C4          26.7668  36.0712  40.5998 C.2            1 <1>                0.0000
      5 N5          27.6020  35.5861  41.5279 N.pl3          1 <1>                0.0000
      6 N6          28.9013  35.5369  41.0159 N.2            1 <1>                0.0000
      7 C7          28.8949  35.9775  39.7787 C.2            1 <1>                0.0000
      8 C8          30.0649  36.0896  38.8757 C.2            1 <1>                0.0000
      9 C9          30.0813  36.9279  37.7619 C.2            1 <1>                0.0000
     10 C10         31.2119  36.9069  37.0612 C.2            1 <1>                0.0000
     11 S11         32.3528  35.7895  37.7966 S.3            1 <1>                0.0000
     12 C12         31.2024  35.3945  39.0665 C.2            1 <1>                0.0000
     13 H13         26.2006  36.4018  37.6819 H              1 <1>                0.0000
     14 H14         25.7037  36.2209  40.7168 H              1 <1>                0.0000
     15 H15         29.2399  37.5472  37.4884 H              1 <1>                0.0000
     16 H16         31.4008  37.4896  36.1716 H              1 <1>                0.0000
     17 H17         31.3793  34.6983  39.8729 H              1 <1>                0.0000
     18 H18         27.3437  35.3106  42.4213 H              1 <1>                0.0000
@<TRIPOS>BOND
    1    1    2 2     
    2    2    3 1     
    3    2   13 1     
    4    3    4 2     
    5    3    7 1     
    6    4    5 1     
    7    4   14 1     
    8    5    6 1     
    9    5   18 1     
   10    6    7 2     
   11    7    8 1     
   12    8    9 1     
   13    8   12 2     
   14    9   10 2     
   15    9   15 1     
   16   10   11 1     
   17   10   16 1     
   18   11   12 1     
   19   12   17 1     
@<TRIPOS>SUBSTRUCTURE
      1 ****           1
@<TRIPOS>SET
DONOR_HYDROGENS      STATIC     ATOMS    <user>   **** ""
1 18
ATOM$RED        STATIC     ATOMS    COLORGROUP SYSTEM
1 18
@<TRIPOS>COMMENT
> <Gold.Version>
2022.2.0

> <Gold.Id.Protein>
1qkm|1qkm_protein|mol2

> <Gold.Protein.RotatedTorsions>
[  496  491  490  487 ] final  170.50 input  -89.99 | X-H torsion

> <Gold.Protein.ActiveResidues>
 MET295  LEU298  THR299  LEU301  ALA302  GLU305  TRP335  MET336  LEU339  MET340 
 GLY342  LEU343  ARG346  PHE356  ILE373  ILE376  PHE377  LEU380  LYS471  GLY472 
 MET473  HIS475  LEU476  LEU477  ASN478  MET479  VAL484  VAL487 

> <Gold.Protein.RotatedAtoms>
   37.3158   33.3322   40.9547 H   0  0  0  0  0  0  0  0  0  0  0  0  # atno 496  bound_to 491 

> <Gold.Score>
     Score     S(PLP)   S(hbond)     S(cho)   S(metal)  DE(clash)   DE(tors)     intcor
     40.85     -36.24       1.00       0.99       0.00       0.00       0.68       0.00

> <Gold.PLP.Fitness>
40.8488

> <Gold.PLP.PLP>
-36.2386

> <Gold.PLP.part.hbond>
-1.0000

> <Gold.PLP.part.metal>
0.0000

> <Gold.PLP.part.buried>
-3.2026

> <Gold.PLP.part.nonpolar>
-33.0138

> <Gold.PLP.part.repulsive>
0.1975

> <Gold.PLP.ligand.clash>
0.0000

> <Gold.PLP.ligand.torsion>
0.6850

> <Gold.PLP.Chemscore.Hbond>
1.0000

> <Gold.PLP.Chemscore.CHOScore>
0.9933

> <Gold.PLP.Chemscore.Metal>
0.0000

> <Gold.Chemscore.Hbonds>
donor molecule, donor type, donor heavy atom, donor atom, acceptor molecule, acceptor atom, score
      L1  H     5    18       P1   582  1.00
      L1  C    12    17       P1   470  0.99

> <Gold.PLP.Chemscore.Internal.Correction>
0.0002

