#       Name:                EN300-156846_i001
#       Creating user name   aseyller
#       Creation time:       Fri Apr 21 19:36:10 2023


#       File generated by GOLD software.
#

@<TRIPOS>MOLECULE
EN300-156846_i001|benzaldehydes|mol2|873|dock10
    18    19     1
SMALL
USER_CHARGES


@<TRIPOS>ATOM
      1 O1          32.1304  35.8222  38.1567 O.2            1 <1>                0.0000
      2 C2          31.0128  36.1512  38.4961 C.2            1 <1>                0.0000
      3 C3          30.2780  37.1534  37.7220 C.2            1 <1>                0.0000
      4 C4          30.7651  37.9134  36.6719 C.2            1 <1>                0.0000
      5 N5          29.7730  38.7048  36.2434 N.pl3          1 <1>                0.0000
      6 N6          28.6232  38.4762  37.0040 N.2            1 <1>                0.0000
      7 C7          28.8752  37.5493  37.8997 C.2            1 <1>                0.0000
      8 C8          27.9274  37.0125  38.9048 C.2            1 <1>                0.0000
      9 C9          26.5642  37.3045  38.8885 C.2            1 <1>                0.0000
     10 C10         25.8582  36.7387  39.8638 C.2            1 <1>                0.0000
     11 S11         26.9139  35.7755  40.8877 S.3            1 <1>                0.0000
     12 C12         28.3105  36.1977  39.9062 C.2            1 <1>                0.0000
     13 H13         30.5585  35.7016  39.3666 H              1 <1>                0.0000
     14 H14         31.7669  37.8754  36.2703 H              1 <1>                0.0000
     15 H15         26.1155  37.9418  38.1410 H              1 <1>                0.0000
     16 H16         24.7938  36.8546  40.0058 H              1 <1>                0.0000
     17 H17         29.3209  35.8591  40.0820 H              1 <1>                0.0000
     18 H18         29.8423  39.3411  35.5145 H              1 <1>                0.0000
@<TRIPOS>BOND
    1    1    2 2     
    2    2    3 1     
    3    2   13 1     
    4    3    4 2     
    5    3    7 1     
    6    4    5 1     
    7    4   14 1     
    8    5    6 1     
    9    5   18 1     
   10    6    7 2     
   11    7    8 1     
   12    8    9 1     
   13    8   12 2     
   14    9   10 2     
   15    9   15 1     
   16   10   11 1     
   17   10   16 1     
   18   11   12 1     
   19   12   17 1     
@<TRIPOS>SUBSTRUCTURE
      1 ****           1
@<TRIPOS>SET
DONOR_HYDROGENS      STATIC     ATOMS    <user>   **** ""
1 18
ATOM$RED        STATIC     ATOMS    COLORGROUP SYSTEM
1 18
@<TRIPOS>COMMENT
> <Gold.Version>
2022.2.0

> <Gold.Id.Protein>
1qkm|1qkm_protein|mol2

> <Gold.Protein.RotatedTorsions>
[  496  491  490  487 ] final -170.70 input  -89.99 | X-H torsion

> <Gold.Protein.ActiveResidues>
 MET295  LEU298  THR299  LEU301  ALA302  GLU305  TRP335  MET336  LEU339  MET340 
 GLY342  LEU343  ARG346  PHE356  ILE373  ILE376  PHE377  LEU380  LYS471  GLY472 
 MET473  HIS475  LEU476  LEU477  ASN478  MET479  VAL484  VAL487 

> <Gold.Protein.RotatedAtoms>
   37.3058   33.5984   40.8000 H   0  0  0  0  0  0  0  0  0  0  0  0  # atno 496  bound_to 491 

> <Gold.Score>
     Score     S(PLP)   S(hbond)     S(cho)   S(metal)  DE(clash)   DE(tors)     intcor
     39.90     -37.02       0.00       0.99       0.00       0.00       0.05       0.00

> <Gold.PLP.Fitness>
39.8994

> <Gold.PLP.PLP>
-37.0247

> <Gold.PLP.part.hbond>
0.0000

> <Gold.PLP.part.metal>
0.0000

> <Gold.PLP.part.buried>
-3.5282

> <Gold.PLP.part.nonpolar>
-33.5986

> <Gold.PLP.part.repulsive>
0.0535

> <Gold.PLP.ligand.clash>
0.0000

> <Gold.PLP.ligand.torsion>
0.0512

> <Gold.PLP.Chemscore.Hbond>
0.0000

> <Gold.PLP.Chemscore.CHOScore>
0.9923

> <Gold.PLP.Chemscore.Metal>
0.0000

> <Gold.Chemscore.Hbonds>
donor molecule, donor type, donor heavy atom, donor atom, acceptor molecule, acceptor atom, score
      L1  C    10    16       P1  1131  0.99

> <Gold.PLP.Chemscore.Internal.Correction>
0.0002

