#       Name:                EN300-156846_i001
#       Creating user name   aseyller
#       Creation time:       Fri Apr 21 19:36:11 2023


#       File generated by GOLD software.
#

@<TRIPOS>MOLECULE
EN300-156846_i001|benzaldehydes|mol2|873|dock12
    18    19     1
SMALL
USER_CHARGES


@<TRIPOS>ATOM
      1 O1          31.8354  33.5120  38.3484 O.2            1 <1>                0.0000
      2 C2          31.0487  34.3208  38.7949 C.2            1 <1>                0.0000
      3 C3          31.0486  35.6961  38.2927 C.2            1 <1>                0.0000
      4 C4          32.0501  36.3143  37.5629 C.2            1 <1>                0.0000
      5 N5          31.6551  37.5677  37.3040 N.pl3          1 <1>                0.0000
      6 N6          30.3918  37.7899  37.8588 N.2            1 <1>                0.0000
      7 C7          29.9840  36.6939  38.4567 C.2            1 <1>                0.0000
      8 C8          28.6987  36.5038  39.1699 C.2            1 <1>                0.0000
      9 C9          28.6067  35.8535  40.3997 C.2            1 <1>                0.0000
     10 C10         27.3767  35.7712  40.8996 C.2            1 <1>                0.0000
     11 S11         26.2323  36.5364  39.8061 S.3            1 <1>                0.0000
     12 C12         27.5236  36.9499  38.6865 C.2            1 <1>                0.0000
     13 H13         30.3457  34.0252  39.5596 H              1 <1>                0.0000
     14 H14         32.9837  35.8658  37.2572 H              1 <1>                0.0000
     15 H15         29.4686  35.4471  40.9079 H              1 <1>                0.0000
     16 H16         27.1191  35.3028  41.8381 H              1 <1>                0.0000
     17 H17         27.3938  37.4767  37.7527 H              1 <1>                0.0000
     18 H18         32.1688  38.2230  36.8064 H              1 <1>                0.0000
@<TRIPOS>BOND
    1    1    2 2     
    2    2    3 1     
    3    2   13 1     
    4    3    4 2     
    5    3    7 1     
    6    4    5 1     
    7    4   14 1     
    8    5    6 1     
    9    5   18 1     
   10    6    7 2     
   11    7    8 1     
   12    8    9 1     
   13    8   12 2     
   14    9   10 2     
   15    9   15 1     
   16   10   11 1     
   17   10   16 1     
   18   11   12 1     
   19   12   17 1     
@<TRIPOS>SUBSTRUCTURE
      1 ****           1
@<TRIPOS>SET
DONOR_HYDROGENS      STATIC     ATOMS    <user>   **** ""
1 18
ATOM$RED        STATIC     ATOMS    COLORGROUP SYSTEM
1 18
@<TRIPOS>COMMENT
> <Gold.Version>
2022.2.0

> <Gold.Id.Protein>
1qkm|1qkm_protein|mol2

> <Gold.Protein.RotatedTorsions>
[  496  491  490  487 ] final  -59.99 input  -89.99 | X-H torsion

> <Gold.Protein.ActiveResidues>
 MET295  LEU298  THR299  LEU301  ALA302  GLU305  TRP335  MET336  LEU339  MET340 
 GLY342  LEU343  ARG346  PHE356  ILE373  ILE376  PHE377  LEU380  LYS471  GLY472 
 MET473  HIS475  LEU476  LEU477  ASN478  MET479  VAL484  VAL487 

> <Gold.Protein.RotatedAtoms>
   36.4969   34.7320   41.4849 H   0  0  0  0  0  0  0  0  0  0  0  0  # atno 496  bound_to 491 

> <Gold.Score>
     Score     S(PLP)   S(hbond)     S(cho)   S(metal)  DE(clash)   DE(tors)     intcor
     40.67     -39.19       0.00       1.00       0.00       0.00       0.76       0.00

> <Gold.PLP.Fitness>
40.6697

> <Gold.PLP.PLP>
-39.1927

> <Gold.PLP.part.hbond>
0.0000

> <Gold.PLP.part.metal>
0.0000

> <Gold.PLP.part.buried>
-4.0949

> <Gold.PLP.part.nonpolar>
-35.5242

> <Gold.PLP.part.repulsive>
0.0500

> <Gold.PLP.ligand.clash>
0.0000

> <Gold.PLP.ligand.torsion>
0.7616

> <Gold.PLP.Chemscore.Hbond>
0.0000

> <Gold.PLP.Chemscore.CHOScore>
1.0000

> <Gold.PLP.Chemscore.Metal>
0.0000

> <Gold.Chemscore.Hbonds>
donor molecule, donor type, donor heavy atom, donor atom, acceptor molecule, acceptor atom, score
      L1  C    10    16       P1   582  1.00

> <Gold.PLP.Chemscore.Internal.Correction>
0.0002

