#       Name:                EN300-156846_i001
#       Creating user name   aseyller
#       Creation time:       Fri Apr 21 19:36:09 2023


#       File generated by GOLD software.
#

@<TRIPOS>MOLECULE
EN300-156846_i001|benzaldehydes|mol2|873|dock7
    18    19     1
SMALL
USER_CHARGES


@<TRIPOS>ATOM
      1 O1          26.9832  38.2047  37.9350 O.2            1 <1>                0.0000
      2 C2          26.3361  37.2726  38.3650 C.2            1 <1>                0.0000
      3 C3          26.6869  36.6701  39.6525 C.2            1 <1>                0.0000
      4 C4          25.8297  36.4070  40.7078 C.2            1 <1>                0.0000
      5 N5          26.5496  35.8548  41.6932 N.pl3          1 <1>                0.0000
      6 N6          27.8862  35.7477  41.3000 N.2            1 <1>                0.0000
      7 C7          28.0166  36.2181  40.0806 C.2            1 <1>                0.0000
      8 C8          29.2691  36.2886  39.2912 C.2            1 <1>                0.0000
      9 C9          30.2699  35.3216  39.3754 C.2            1 <1>                0.0000
     10 C10         31.3268  35.5397  38.5975 C.2            1 <1>                0.0000
     11 S11         31.1053  37.0277  37.6877 S.3            1 <1>                0.0000
     12 C12         29.5323  37.2890  38.4291 C.2            1 <1>                0.0000
     13 H13         25.4988  36.8902  37.8002 H              1 <1>                0.0000
     14 H14         24.7695  36.6112  40.7322 H              1 <1>                0.0000
     15 H15         30.1933  34.4609  40.0232 H              1 <1>                0.0000
     16 H16         32.1931  34.8978  38.5345 H              1 <1>                0.0000
     17 H17         28.8795  38.1253  38.2272 H              1 <1>                0.0000
     18 H18         26.1961  35.5719  42.5511 H              1 <1>                0.0000
@<TRIPOS>BOND
    1    1    2 2     
    2    2    3 1     
    3    2   13 1     
    4    3    4 2     
    5    3    7 1     
    6    4    5 1     
    7    4   14 1     
    8    5    6 1     
    9    5   18 1     
   10    6    7 2     
   11    7    8 1     
   12    8    9 1     
   13    8   12 2     
   14    9   10 2     
   15    9   15 1     
   16   10   11 1     
   17   10   16 1     
   18   11   12 1     
   19   12   17 1     
@<TRIPOS>SUBSTRUCTURE
      1 ****           1
@<TRIPOS>SET
DONOR_HYDROGENS      STATIC     ATOMS    <user>   **** ""
1 18
ATOM$RED        STATIC     ATOMS    COLORGROUP SYSTEM
1 18
@<TRIPOS>COMMENT
> <Gold.Version>
2022.2.0

> <Gold.Id.Protein>
1qkm|1qkm_protein|mol2

> <Gold.Protein.RotatedTorsions>
[  496  491  490  487 ] final -160.98 input  -89.99 | X-H torsion

> <Gold.Protein.ActiveResidues>
 MET295  LEU298  THR299  LEU301  ALA302  GLU305  TRP335  MET336  LEU339  MET340 
 GLY342  LEU343  ARG346  PHE356  ILE373  ILE376  PHE377  LEU380  LYS471  GLY472 
 MET473  HIS475  LEU476  LEU477  ASN478  MET479  VAL484  VAL487 

> <Gold.Protein.RotatedAtoms>
   37.2787   33.7480   40.7508 H   0  0  0  0  0  0  0  0  0  0  0  0  # atno 496  bound_to 491 

> <Gold.Score>
     Score     S(PLP)   S(hbond)     S(cho)   S(metal)  DE(clash)   DE(tors)     intcor
     42.75     -38.59       1.00       1.00       0.00       0.00       0.91       0.00

> <Gold.PLP.Fitness>
42.7550

> <Gold.PLP.PLP>
-38.5887

> <Gold.PLP.part.hbond>
-0.9217

> <Gold.PLP.part.metal>
0.0000

> <Gold.PLP.part.buried>
-2.8161

> <Gold.PLP.part.nonpolar>
-35.6452

> <Gold.PLP.part.repulsive>
0.1852

> <Gold.PLP.ligand.clash>
0.0000

> <Gold.PLP.ligand.torsion>
0.9138

> <Gold.PLP.Chemscore.Hbond>
1.0000

> <Gold.PLP.Chemscore.CHOScore>
0.9979

> <Gold.PLP.Chemscore.Metal>
0.0000

> <Gold.Chemscore.Hbonds>
donor molecule, donor type, donor heavy atom, donor atom, acceptor molecule, acceptor atom, score
      L1  H     5    18       P1   582  1.00
      L1  C     4    14       P1  1131  1.00

> <Gold.PLP.Chemscore.Internal.Correction>
0.0002

