#       Name:                EN300-156846_i001
#       Creating user name   aseyller
#       Creation time:       Fri Apr 21 19:36:11 2023


#       File generated by GOLD software.
#

@<TRIPOS>MOLECULE
EN300-156846_i001|benzaldehydes|mol2|873|dock13
    18    19     1
SMALL
USER_CHARGES


@<TRIPOS>ATOM
      1 O1          32.0016  34.0221  38.5385 O.2            1 <1>                0.0000
      2 C2          32.0436  35.1886  38.2070 C.2            1 <1>                0.0000
      3 C3          30.8792  36.0512  38.4158 C.2            1 <1>                0.0000
      4 C4          29.9955  36.0108  39.4812 C.2            1 <1>                0.0000
      5 N5          29.0763  36.9659  39.2885 N.pl3          1 <1>                0.0000
      6 N6          29.3428  37.6454  38.0968 N.2            1 <1>                0.0000
      7 C7          30.4184  37.1366  37.5408 C.2            1 <1>                0.0000
      8 C8          31.0423  37.5688  36.2677 C.2            1 <1>                0.0000
      9 C9          32.3088  37.1464  35.8661 C.2            1 <1>                0.0000
     10 C10         32.7158  37.6299  34.6955 C.2            1 <1>                0.0000
     11 S11         31.4789  38.6789  34.0169 S.3            1 <1>                0.0000
     12 C12         30.4305  38.3975  35.4003 C.2            1 <1>                0.0000
     13 H13         32.9412  35.5916  37.7619 H              1 <1>                0.0000
     14 H14         30.0392  35.3299  40.3184 H              1 <1>                0.0000
     15 H15         32.9138  36.4777  36.4603 H              1 <1>                0.0000
     16 H16         33.6659  37.4108  34.2309 H              1 <1>                0.0000
     17 H17         29.4487  38.8267  35.5356 H              1 <1>                0.0000
     18 H18         28.3367  37.1570  39.8862 H              1 <1>                0.0000
@<TRIPOS>BOND
    1    1    2 2     
    2    2    3 1     
    3    2   13 1     
    4    3    4 2     
    5    3    7 1     
    6    4    5 1     
    7    4   14 1     
    8    5    6 1     
    9    5   18 1     
   10    6    7 2     
   11    7    8 1     
   12    8    9 1     
   13    8   12 2     
   14    9   10 2     
   15    9   15 1     
   16   10   11 1     
   17   10   16 1     
   18   11   12 1     
   19   12   17 1     
@<TRIPOS>SUBSTRUCTURE
      1 ****           1
@<TRIPOS>SET
DONOR_HYDROGENS      STATIC     ATOMS    <user>   **** ""
1 18
ATOM$RED        STATIC     ATOMS    COLORGROUP SYSTEM
1 18
@<TRIPOS>COMMENT
> <Gold.Version>
2022.2.0

> <Gold.Id.Protein>
1qkm|1qkm_protein|mol2

> <Gold.Protein.RotatedTorsions>
[  496  491  490  487 ] final  -76.42 input  -89.99 | X-H torsion

> <Gold.Protein.ActiveResidues>
 MET295  LEU298  THR299  LEU301  ALA302  GLU305  TRP335  MET336  LEU339  MET340 
 GLY342  LEU343  ARG346  PHE356  ILE373  ILE376  PHE377  LEU380  LYS471  GLY472 
 MET473  HIS475  LEU476  LEU477  ASN478  MET479  VAL484  VAL487 

> <Gold.Protein.RotatedAtoms>
   36.6340   34.7188   41.2531 H   0  0  0  0  0  0  0  0  0  0  0  0  # atno 496  bound_to 491 

> <Gold.Score>
     Score     S(PLP)   S(hbond)     S(cho)   S(metal)  DE(clash)   DE(tors)     intcor
     39.35     -34.10       0.00       1.97       0.00       0.00       0.33       0.00

> <Gold.PLP.Fitness>
39.3533

> <Gold.PLP.PLP>
-34.1038

> <Gold.PLP.part.hbond>
0.0000

> <Gold.PLP.part.metal>
0.0000

> <Gold.PLP.part.buried>
-3.8179

> <Gold.PLP.part.nonpolar>
-30.9369

> <Gold.PLP.part.repulsive>
0.0709

> <Gold.PLP.ligand.clash>
0.0000

> <Gold.PLP.ligand.torsion>
0.3259

> <Gold.PLP.Chemscore.Hbond>
0.0000

> <Gold.PLP.Chemscore.CHOScore>
1.9670

> <Gold.PLP.Chemscore.Metal>
0.0000

> <Gold.Chemscore.Hbonds>
donor molecule, donor type, donor heavy atom, donor atom, acceptor molecule, acceptor atom, score
      L1  C     4    14       P1   470  0.97
      L1  C    10    16       P1  3229  1.00

> <Gold.PLP.Chemscore.Internal.Correction>
0.0002

