#       Name:                EN300-156846_i001
#       Creating user name   aseyller
#       Creation time:       Fri Apr 21 19:36:07 2023


#       File generated by GOLD software.
#

@<TRIPOS>MOLECULE
EN300-156846_i001|benzaldehydes|mol2|873|dock2
    18    19     1
SMALL
USER_CHARGES


@<TRIPOS>ATOM
      1 O1          30.1464  38.7233  36.8960 O.2            1 <1>                0.0000
      2 C2          29.3658  38.1523  37.6288 C.2            1 <1>                0.0000
      3 C3          29.7863  36.9513  38.3531 C.2            1 <1>                0.0000
      4 C4          31.0034  36.2995  38.2454 C.2            1 <1>                0.0000
      5 N5          30.9812  35.2492  39.0764 N.pl3          1 <1>                0.0000
      6 N6          29.7525  35.1966  39.7399 N.2            1 <1>                0.0000
      7 C7          29.0044  36.2008  39.3437 C.2            1 <1>                0.0000
      8 C8          27.6294  36.5114  39.8016 C.2            1 <1>                0.0000
      9 C9          26.7082  37.1990  39.0126 C.2            1 <1>                0.0000
     10 C10         25.5198  37.3921  39.5782 C.2            1 <1>                0.0000
     11 S11         25.5018  36.6920  41.1908 S.3            1 <1>                0.0000
     12 C12         27.1643  36.1478  41.0119 C.2            1 <1>                0.0000
     13 H13         28.3622  38.5323  37.7501 H              1 <1>                0.0000
     14 H14         31.8242  36.5866  37.6049 H              1 <1>                0.0000
     15 H15         26.9418  37.5486  38.0179 H              1 <1>                0.0000
     16 H16         24.6889  37.9039  39.1154 H              1 <1>                0.0000
     17 H17         27.7273  35.6086  41.7594 H              1 <1>                0.0000
     18 H18         31.7088  34.6195  39.1990 H              1 <1>                0.0000
@<TRIPOS>BOND
    1    1    2 2     
    2    2    3 1     
    3    2   13 1     
    4    3    4 2     
    5    3    7 1     
    6    4    5 1     
    7    4   14 1     
    8    5    6 1     
    9    5   18 1     
   10    6    7 2     
   11    7    8 1     
   12    8    9 1     
   13    8   12 2     
   14    9   10 2     
   15    9   15 1     
   16   10   11 1     
   17   10   16 1     
   18   11   12 1     
   19   12   17 1     
@<TRIPOS>SUBSTRUCTURE
      1 ****           1
@<TRIPOS>SET
DONOR_HYDROGENS      STATIC     ATOMS    <user>   **** ""
1 18
ATOM$RED        STATIC     ATOMS    COLORGROUP SYSTEM
1 18
@<TRIPOS>COMMENT
> <Gold.Version>
2022.2.0

> <Gold.Id.Protein>
1qkm|1qkm_protein|mol2

> <Gold.Protein.RotatedTorsions>
[  496  491  490  487 ] final  -82.52 input  -89.99 | X-H torsion

> <Gold.Protein.ActiveResidues>
 MET295  LEU298  THR299  LEU301  ALA302  GLU305  TRP335  MET336  LEU339  MET340 
 GLY342  LEU343  ARG346  PHE356  ILE373  ILE376  PHE377  LEU380  LYS471  GLY472 
 MET473  HIS475  LEU476  LEU477  ASN478  MET479  VAL484  VAL487 

> <Gold.Protein.RotatedAtoms>
   36.6887   34.6953   41.1724 H   0  0  0  0  0  0  0  0  0  0  0  0  # atno 496  bound_to 491 

> <Gold.Score>
     Score     S(PLP)   S(hbond)     S(cho)   S(metal)  DE(clash)   DE(tors)     intcor
     39.89     -39.94       0.00       0.19       0.00       0.00       0.30       0.00

> <Gold.PLP.Fitness>
39.8931

> <Gold.PLP.PLP>
-39.9363

> <Gold.PLP.part.hbond>
-0.7417

> <Gold.PLP.part.metal>
0.0000

> <Gold.PLP.part.buried>
-3.9894

> <Gold.PLP.part.nonpolar>
-37.0715

> <Gold.PLP.part.repulsive>
0.2001

> <Gold.PLP.ligand.clash>
0.0000

> <Gold.PLP.ligand.torsion>
0.3047

> <Gold.PLP.Chemscore.Hbond>
0.0000

> <Gold.PLP.Chemscore.CHOScore>
0.1887

> <Gold.PLP.Chemscore.Metal>
0.0000

> <Gold.Chemscore.Hbonds>
donor molecule, donor type, donor heavy atom, donor atom, acceptor molecule, acceptor atom, score
      L1  C    12    17       P1   582  0.19

> <Gold.PLP.Chemscore.Internal.Correction>
0.0002

