#       Name:                plp ligand
#       Creating user name   aseyller
#       Creation time:       Fri Apr 21 19:36:06 2023


#       File generated by GOLD software.
#

@<TRIPOS>MOLECULE
plp ligand
    18    19     1
SMALL
USER_CHARGES


@<TRIPOS>ATOM
      1 O1          -2.3418  -2.6156  -0.2292 ACCEPTOR       1 <1>                0.0000
      2 C2          -1.3433  -1.9297  -0.1589 NONPOLAR       1 <1>                0.0000
      3 C3          -1.4611  -0.4820   0.0252 NONPOLAR       1 <1>                0.0000
      4 C4          -2.6320   0.2489   0.1366 NONPOLAR       1 <1>                0.0000
      5 N5          -2.2985   1.5367   0.2931 DONOR          1 <1>                0.0000
      6 N6          -0.9074   1.6694   0.2868 ACCEPTOR       1 <1>                0.0000
      7 C7          -0.3613   0.4846   0.1351 NONPOLAR       1 <1>                0.0000
      8 C8           1.0885   0.1822   0.0758 NONPOLAR       1 <1>                0.0000
      9 C9           2.0154   1.0414  -0.5127 NONPOLAR       1 <1>                0.0000
     10 C10          3.2752   0.6155  -0.4780 NONPOLAR       1 <1>                0.0000
     11 S11          3.3589  -0.9453   0.3268 NONPOLAR       1 <1>                0.0000
     12 C12          1.6204  -0.9426   0.5909 NONPOLAR       1 <1>                0.0000
     13 H13         -0.3676  -2.3876  -0.2278                1 <1>                0.0000
     14 H14         -3.6356  -0.1486   0.1027                1 <1>                0.0000
     15 H15          1.7322   1.9813  -0.9629                1 <1>                0.0000
     16 H16          4.1214   1.1494  -0.8847                1 <1>                0.0000
     17 H17          1.0642  -1.7247   1.0862                1 <1>                0.0000
     18 H18         -2.9281   2.2675   0.3953                1 <1>                0.0000
@<TRIPOS>BOND
    1    1    2 2     
    2    2    3 1     
    3    2   13 1     
    4    3    4 2     
    5    3    7 1     
    6    4    5 1     
    7    4   14 1     
    8    5    6 1     
    9    5   18 1     
   10    6    7 2     
   11    7    8 1     
   12    8    9 1     
   13    8   12 2     
   14    9   10 2     
   15    9   15 1     
   16   10   11 1     
   17   10   16 1     
   18   11   12 1     
   19   12   17 1     
@<TRIPOS>SUBSTRUCTURE
      1 ****           1
@<TRIPOS>SET
DONOR_HYDROGENS      STATIC     ATOMS    <user>   **** ""
1 18
ATOM$RED        STATIC     ATOMS    COLORGROUP SYSTEM
1 18
