#       Name:                EN300-6732001_i001
#       Creating user name   aseyller
#       Creation time:       Fri Apr 21 16:41:02 2023


#       File generated by GOLD software.
#

@<TRIPOS>MOLECULE
EN300-6732001_i001|aminophenols|mol2|94|dock9
    15    15     1
SMALL
USER_CHARGES


@<TRIPOS>ATOM
      1 N1          31.7716  34.8804  39.1836 N.pl3          1 <1>                0.0000
      2 C2          31.0887  35.9060  38.5160 C.ar           1 <1>                0.0000
      3 C3          30.0579  36.5899  39.1554 C.ar           1 <1>                0.0000
      4 O4          29.7120  36.2639  40.4300 O.3            1 <1>                0.0000
      5 C5          29.3859  37.6029  38.4917 C.ar           1 <1>                0.0000
      6 C6          29.7374  37.9345  37.1959 C.ar           1 <1>                0.0000
      7 C7          30.7607  37.2566  36.5579 C.ar           1 <1>                0.0000
      8 Cl8         31.1970  37.6778  34.9313 Cl             1 <1>                0.0000
      9 C9          31.4421  36.2469  37.2172 C.ar           1 <1>                0.0000
     10 F10         32.4412  35.5858  36.5927 F              1 <1>                0.0000
     11 H11         28.5861  38.1341  38.9864 H              1 <1>                0.0000
     12 H12         29.2114  38.7246  36.6805 H              1 <1>                0.0000
     13 H13         31.5264  34.6459  40.0924 H              1 <1>                0.0000
     14 H14         32.4867  34.4021  38.7355 H              1 <1>                0.0000
     15 H15         30.4656  36.0786  41.0070 H              1 <1>                0.0000
@<TRIPOS>BOND
    1    1    2 1     
    2    1   13 1     
    3    1   14 1     
    4    2    3 ar    
    5    2    9 ar    
    6    3    4 1     
    7    3    5 ar    
    8    4   15 1     
    9    5    6 ar    
   10    5   11 1     
   11    6    7 ar    
   12    6   12 1     
   13    7    8 1     
   14    7    9 ar    
   15    9   10 1     
@<TRIPOS>SUBSTRUCTURE
      1 ****           1
@<TRIPOS>SET
DONOR_HYDROGENS      STATIC     ATOMS    <user>   **** ""
3 13 14 15
ATOM$RED        STATIC     ATOMS    COLORGROUP SYSTEM
3 13 14 15
@<TRIPOS>COMMENT
> <Gold.Version>
2022.2.0

> <Gold.Id.Protein>
1qkm|1qkm_protein|mol2

> <Gold.Protein.RotatedTorsions>
[  496  491  490  487 ] final   68.04 input  -89.99 | X-H torsion

> <Gold.Protein.ActiveResidues>
 MET295  LEU298  THR299  LEU301  ALA302  GLU305  TRP335  MET336  LEU339  MET340 
 GLY342  LEU343  ARG346  PHE356  ILE373  ILE376  PHE377  LEU380  LYS471  GLY472 
 MET473  HIS475  LEU476  LEU477  ASN478  MET479  VAL484  VAL487 

> <Gold.Protein.RotatedAtoms>
   36.6201   33.2217   42.2458 H   0  0  0  0  0  0  0  0  0  0  0  0  # atno 496  bound_to 491 

> <Gold.Score>
     Score     S(PLP)   S(hbond)     S(cho)   S(metal)  DE(clash)   DE(tors)     intcor
     35.60     -30.02       1.86       0.00       0.00       0.00       0.00       0.00

> <Gold.PLP.Fitness>
35.5959

> <Gold.PLP.PLP>
-30.0219

> <Gold.PLP.part.hbond>
-2.0000

> <Gold.PLP.part.metal>
0.0000

> <Gold.PLP.part.buried>
-1.5410

> <Gold.PLP.part.nonpolar>
-26.0812

> <Gold.PLP.part.repulsive>
0.0882

> <Gold.PLP.ligand.clash>
0.0000

> <Gold.PLP.ligand.torsion>
0.0000

> <Gold.PLP.Chemscore.Hbond>
1.8580

> <Gold.PLP.Chemscore.CHOScore>
0.0000

> <Gold.PLP.Chemscore.Metal>
0.0000

> <Gold.Chemscore.Hbonds>
donor molecule, donor type, donor heavy atom, donor atom, acceptor molecule, acceptor atom, score
      L1  H     1    13       P1   470  0.86
      L1  H     4    15       P1   470  1.00

> <Gold.PLP.Chemscore.Internal.Correction>
0.0000

