#       Name:                EN300-6732001_i001
#       Creating user name   aseyller
#       Creation time:       Fri Apr 21 16:41:02 2023


#       File generated by GOLD software.
#

@<TRIPOS>MOLECULE
EN300-6732001_i001|aminophenols|mol2|94|dock10
    15    15     1
SMALL
USER_CHARGES


@<TRIPOS>ATOM
      1 N1          26.9684  36.4278  42.6410 N.pl3          1 <1>                0.0000
      2 C2          26.9844  36.6296  41.2543 C.ar           1 <1>                0.0000
      3 C3          25.7881  36.7667  40.5549 C.ar           1 <1>                0.0000
      4 O4          24.6012  36.7053  41.2166 O.3            1 <1>                0.0000
      5 C5          25.8088  36.9660  39.1843 C.ar           1 <1>                0.0000
      6 C6          27.0154  37.0284  38.5114 C.ar           1 <1>                0.0000
      7 C7          28.2054  36.8922  39.2034 C.ar           1 <1>                0.0000
      8 Cl8         29.7165  36.9715  38.3526 Cl             1 <1>                0.0000
      9 C9          28.1934  36.6993  40.5749 C.ar           1 <1>                0.0000
     10 F10         29.3565  36.5664  41.2493 F              1 <1>                0.0000
     11 H11         24.8817  37.0724  38.6406 H              1 <1>                0.0000
     12 H12         27.0286  37.1836  37.4426 H              1 <1>                0.0000
     13 H13         26.1232  36.3834  43.1149 H              1 <1>                0.0000
     14 H14         27.8024  36.3285  43.1263 H              1 <1>                0.0000
     15 H15         24.0237  35.9874  40.9228 H              1 <1>                0.0000
@<TRIPOS>BOND
    1    1    2 1     
    2    1   13 1     
    3    1   14 1     
    4    2    3 ar    
    5    2    9 ar    
    6    3    4 1     
    7    3    5 ar    
    8    4   15 1     
    9    5    6 ar    
   10    5   11 1     
   11    6    7 ar    
   12    6   12 1     
   13    7    8 1     
   14    7    9 ar    
   15    9   10 1     
@<TRIPOS>SUBSTRUCTURE
      1 ****           1
@<TRIPOS>SET
DONOR_HYDROGENS      STATIC     ATOMS    <user>   **** ""
3 13 14 15
ATOM$RED        STATIC     ATOMS    COLORGROUP SYSTEM
3 13 14 15
@<TRIPOS>COMMENT
> <Gold.Version>
2022.2.0

> <Gold.Id.Protein>
1qkm|1qkm_protein|mol2

> <Gold.Protein.RotatedTorsions>
[  496  491  490  487 ] final  124.91 input  -89.99 | X-H torsion

> <Gold.Protein.ActiveResidues>
 MET295  LEU298  THR299  LEU301  ALA302  GLU305  TRP335  MET336  LEU339  MET340 
 GLY342  LEU343  ARG346  PHE356  ILE373  ILE376  PHE377  LEU380  LYS471  GLY472 
 MET473  HIS475  LEU476  LEU477  ASN478  MET479  VAL484  VAL487 

> <Gold.Protein.RotatedAtoms>
   37.1174   32.9536   41.5475 H   0  0  0  0  0  0  0  0  0  0  0  0  # atno 496  bound_to 491 

> <Gold.Score>
     Score     S(PLP)   S(hbond)     S(cho)   S(metal)  DE(clash)   DE(tors)     intcor
     40.43     -36.80       1.21       0.00       0.00       0.00       0.00       0.00

> <Gold.PLP.Fitness>
40.4278

> <Gold.PLP.PLP>
-36.7993

> <Gold.PLP.part.hbond>
-2.4601

> <Gold.PLP.part.metal>
0.0000

> <Gold.PLP.part.buried>
0.2571

> <Gold.PLP.part.nonpolar>
-34.7938

> <Gold.PLP.part.repulsive>
0.0697

> <Gold.PLP.ligand.clash>
0.0000

> <Gold.PLP.ligand.torsion>
0.0000

> <Gold.PLP.Chemscore.Hbond>
1.2095

> <Gold.PLP.Chemscore.CHOScore>
0.0000

> <Gold.PLP.Chemscore.Metal>
0.0000

> <Gold.Chemscore.Hbonds>
donor molecule, donor type, donor heavy atom, donor atom, acceptor molecule, acceptor atom, score
      L1  H     1    13       P1   582  0.10
      L1  H     4    15       P1  1131  0.70
      P1  H  1258  1270       L1     4  0.41

> <Gold.PLP.Chemscore.Internal.Correction>
0.0000

