#       Name:                EN300-6732001_i001
#       Creating user name   aseyller
#       Creation time:       Fri Apr 21 16:41:04 2023


#       File generated by GOLD software.
#

@<TRIPOS>MOLECULE
EN300-6732001_i001|aminophenols|mol2|94|dock17
    15    15     1
SMALL
USER_CHARGES


@<TRIPOS>ATOM
      1 N1          32.8261  35.8541  36.7776 N.pl3          1 <1>                0.0000
      2 C2          32.2283  36.9610  36.1602 C.ar           1 <1>                0.0000
      3 C3          32.6555  37.3729  34.9004 C.ar           1 <1>                0.0000
      4 O4          33.6540  36.7011  34.2663 O.3            1 <1>                0.0000
      5 C5          32.0618  38.4675  34.2940 C.ar           1 <1>                0.0000
      6 C6          31.0466  39.1507  34.9385 C.ar           1 <1>                0.0000
      7 C7          30.6204  38.7442  36.1901 C.ar           1 <1>                0.0000
      8 Cl8         29.3457  39.6061  36.9937 Cl             1 <1>                0.0000
      9 C9          31.2045  37.6465  36.8004 C.ar           1 <1>                0.0000
     10 F10         30.7870  37.2507  38.0228 F              1 <1>                0.0000
     11 H11         32.3921  38.7881  33.3170 H              1 <1>                0.0000
     12 H12         30.5856  40.0041  34.4635 H              1 <1>                0.0000
     13 H13         33.5385  35.3737  36.3275 H              1 <1>                0.0000
     14 H14         32.5303  35.5707  37.6569 H              1 <1>                0.0000
     15 H15         34.0887  37.2097  33.5680 H              1 <1>                0.0000
@<TRIPOS>BOND
    1    1    2 1     
    2    1   13 1     
    3    1   14 1     
    4    2    3 ar    
    5    2    9 ar    
    6    3    4 1     
    7    3    5 ar    
    8    4   15 1     
    9    5    6 ar    
   10    5   11 1     
   11    6    7 ar    
   12    6   12 1     
   13    7    8 1     
   14    7    9 ar    
   15    9   10 1     
@<TRIPOS>SUBSTRUCTURE
      1 ****           1
@<TRIPOS>SET
DONOR_HYDROGENS      STATIC     ATOMS    <user>   **** ""
3 13 14 15
ATOM$RED        STATIC     ATOMS    COLORGROUP SYSTEM
3 13 14 15
@<TRIPOS>COMMENT
> <Gold.Version>
2022.2.0

> <Gold.Id.Protein>
1qkm|1qkm_protein|mol2

> <Gold.Protein.RotatedTorsions>
[  496  491  490  487 ] final   40.18 input  -89.99 | X-H torsion

> <Gold.Protein.ActiveResidues>
 MET295  LEU298  THR299  LEU301  ALA302  GLU305  TRP335  MET336  LEU339  MET340 
 GLY342  LEU343  ARG346  PHE356  ILE373  ILE376  PHE377  LEU380  LYS471  GLY472 
 MET473  HIS475  LEU476  LEU477  ASN478  MET479  VAL484  VAL487 

> <Gold.Protein.RotatedAtoms>
   36.4049   33.5986   42.3794 H   0  0  0  0  0  0  0  0  0  0  0  0  # atno 496  bound_to 491 

> <Gold.Score>
     Score     S(PLP)   S(hbond)     S(cho)   S(metal)  DE(clash)   DE(tors)     intcor
     36.10     -33.10       1.00       0.00       0.00       0.00       0.00       0.00

> <Gold.PLP.Fitness>
36.1002

> <Gold.PLP.PLP>
-33.1002

> <Gold.PLP.part.hbond>
-1.6881

> <Gold.PLP.part.metal>
0.0000

> <Gold.PLP.part.buried>
-3.3545

> <Gold.PLP.part.nonpolar>
-27.3442

> <Gold.PLP.part.repulsive>
0.0000

> <Gold.PLP.ligand.clash>
0.0000

> <Gold.PLP.ligand.torsion>
0.0000

> <Gold.PLP.Chemscore.Hbond>
1.0000

> <Gold.PLP.Chemscore.CHOScore>
0.0000

> <Gold.PLP.Chemscore.Metal>
0.0000

> <Gold.Chemscore.Hbonds>
donor molecule, donor type, donor heavy atom, donor atom, acceptor molecule, acceptor atom, score
      L1  H     4    15       P1  3229  1.00

> <Gold.PLP.Chemscore.Internal.Correction>
0.0000

