#       Name:                EN300-6732001_i001
#       Creating user name   aseyller
#       Creation time:       Fri Apr 21 16:41:05 2023


#       File generated by GOLD software.
#

@<TRIPOS>MOLECULE
EN300-6732001_i001|aminophenols|mol2|94|dock19
    15    15     1
SMALL
USER_CHARGES


@<TRIPOS>ATOM
      1 N1          27.7464  35.2316  41.5931 N.pl3          1 <1>                0.0000
      2 C2          27.8349  35.9646  40.4019 C.ar           1 <1>                0.0000
      3 C3          29.0057  35.9336  39.6486 C.ar           1 <1>                0.0000
      4 O4          30.0659  35.1913  40.0673 O.3            1 <1>                0.0000
      5 C5          29.0886  36.6597  38.4719 C.ar           1 <1>                0.0000
      6 C6          28.0108  37.4144  38.0460 C.ar           1 <1>                0.0000
      7 C7          26.8467  37.4475  38.7925 C.ar           1 <1>                0.0000
      8 Cl8         25.4976  38.3969  38.2523 Cl             1 <1>                0.0000
      9 C9          26.7534  36.7189  39.9669 C.ar           1 <1>                0.0000
     10 F10         25.6158  36.7522  40.6947 F              1 <1>                0.0000
     11 H11         29.9960  36.6367  37.8866 H              1 <1>                0.0000
     12 H12         28.0783  37.9800  37.1283 H              1 <1>                0.0000
     13 H13         28.5013  34.7018  41.8938 H              1 <1>                0.0000
     14 H14         26.9317  35.2572  42.1190 H              1 <1>                0.0000
     15 H15         30.5325  35.5656  40.8272 H              1 <1>                0.0000
@<TRIPOS>BOND
    1    1    2 1     
    2    1   13 1     
    3    1   14 1     
    4    2    3 ar    
    5    2    9 ar    
    6    3    4 1     
    7    3    5 ar    
    8    4   15 1     
    9    5    6 ar    
   10    5   11 1     
   11    6    7 ar    
   12    6   12 1     
   13    7    8 1     
   14    7    9 ar    
   15    9   10 1     
@<TRIPOS>SUBSTRUCTURE
      1 ****           1
@<TRIPOS>SET
DONOR_HYDROGENS      STATIC     ATOMS    <user>   **** ""
3 13 14 15
ATOM$RED        STATIC     ATOMS    COLORGROUP SYSTEM
3 13 14 15
@<TRIPOS>COMMENT
> <Gold.Version>
2022.2.0

> <Gold.Id.Protein>
1qkm|1qkm_protein|mol2

> <Gold.Protein.RotatedTorsions>
[  496  491  490  487 ] final -159.92 input  -89.99 | X-H torsion

> <Gold.Protein.ActiveResidues>
 MET295  LEU298  THR299  LEU301  ALA302  GLU305  TRP335  MET336  LEU339  MET340 
 GLY342  LEU343  ARG346  PHE356  ILE373  ILE376  PHE377  LEU380  LYS471  GLY472 
 MET473  HIS475  LEU476  LEU477  ASN478  MET479  VAL484  VAL487 

> <Gold.Protein.RotatedAtoms>
   37.2749   33.7645   40.7468 H   0  0  0  0  0  0  0  0  0  0  0  0  # atno 496  bound_to 491 

> <Gold.Score>
     Score     S(PLP)   S(hbond)     S(cho)   S(metal)  DE(clash)   DE(tors)     intcor
     34.43     -29.39       1.68       0.00       0.00       0.00       0.00       0.00

> <Gold.PLP.Fitness>
34.4260

> <Gold.PLP.PLP>
-29.3860

> <Gold.PLP.part.hbond>
-2.0000

> <Gold.PLP.part.metal>
0.0000

> <Gold.PLP.part.buried>
-2.5775

> <Gold.PLP.part.nonpolar>
-25.7627

> <Gold.PLP.part.repulsive>
0.0681

> <Gold.PLP.ligand.clash>
0.0000

> <Gold.PLP.ligand.torsion>
0.0000

> <Gold.PLP.Chemscore.Hbond>
1.6800

> <Gold.PLP.Chemscore.CHOScore>
0.0000

> <Gold.PLP.Chemscore.Metal>
0.0000

> <Gold.Chemscore.Hbonds>
donor molecule, donor type, donor heavy atom, donor atom, acceptor molecule, acceptor atom, score
      L1  H     1    14       P1   582  0.86
      L1  H     4    15       P1   470  0.82

> <Gold.PLP.Chemscore.Internal.Correction>
0.0000

