#       Name:                EN300-6732001_i001
#       Creating user name   aseyller
#       Creation time:       Fri Apr 21 16:41:04 2023


#       File generated by GOLD software.
#

@<TRIPOS>MOLECULE
EN300-6732001_i001|aminophenols|mol2|94|dock16
    15    15     1
SMALL
USER_CHARGES


@<TRIPOS>ATOM
      1 N1          33.3232  35.3745  36.4327 N.pl3          1 <1>                0.0000
      2 C2          32.3465  36.3325  36.1290 C.ar           1 <1>                0.0000
      3 C3          32.3726  36.9915  34.9026 C.ar           1 <1>                0.0000
      4 O4          33.3462  36.7062  33.9964 O.3            1 <1>                0.0000
      5 C5          31.4052  37.9377  34.6068 C.ar           1 <1>                0.0000
      6 C6          30.4153  38.2279  35.5279 C.ar           1 <1>                0.0000
      7 C7          30.3871  37.5752  36.7472 C.ar           1 <1>                0.0000
      8 Cl8         29.1418  37.9442  37.8990 Cl             1 <1>                0.0000
      9 C9          31.3469  36.6230  37.0480 C.ar           1 <1>                0.0000
     10 F10         31.3180  35.9864  38.2393 F              1 <1>                0.0000
     11 H11         31.4242  38.4496  33.6560 H              1 <1>                0.0000
     12 H12         29.6624  38.9664  35.2949 H              1 <1>                0.0000
     13 H13         34.0186  35.1696  35.7882 H              1 <1>                0.0000
     14 H14         33.3062  34.9191  37.2890 H              1 <1>                0.0000
     15 H15         33.0350  36.2073  33.2287 H              1 <1>                0.0000
@<TRIPOS>BOND
    1    1    2 1     
    2    1   13 1     
    3    1   14 1     
    4    2    3 ar    
    5    2    9 ar    
    6    3    4 1     
    7    3    5 ar    
    8    4   15 1     
    9    5    6 ar    
   10    5   11 1     
   11    6    7 ar    
   12    6   12 1     
   13    7    8 1     
   14    7    9 ar    
   15    9   10 1     
@<TRIPOS>SUBSTRUCTURE
      1 ****           1
@<TRIPOS>SET
DONOR_HYDROGENS      STATIC     ATOMS    <user>   **** ""
3 13 14 15
ATOM$RED        STATIC     ATOMS    COLORGROUP SYSTEM
3 13 14 15
@<TRIPOS>COMMENT
> <Gold.Version>
2022.2.0

> <Gold.Id.Protein>
1qkm|1qkm_protein|mol2

> <Gold.Protein.RotatedTorsions>
[  496  491  490  487 ] final  -60.41 input  -89.99 | X-H torsion

> <Gold.Protein.ActiveResidues>
 MET295  LEU298  THR299  LEU301  ALA302  GLU305  TRP335  MET336  LEU339  MET340 
 GLY342  LEU343  ARG346  PHE356  ILE373  ILE376  PHE377  LEU380  LYS471  GLY472 
 MET473  HIS475  LEU476  LEU477  ASN478  MET479  VAL484  VAL487 

> <Gold.Protein.RotatedAtoms>
   36.5001   34.7326   41.4788 H   0  0  0  0  0  0  0  0  0  0  0  0  # atno 496  bound_to 491 

> <Gold.Score>
     Score     S(PLP)   S(hbond)     S(cho)   S(metal)  DE(clash)   DE(tors)     intcor
     35.30     -32.30       1.00       0.00       0.00       0.00       0.00       0.00

> <Gold.PLP.Fitness>
35.3047

> <Gold.PLP.PLP>
-32.3047

> <Gold.PLP.part.hbond>
-2.6951

> <Gold.PLP.part.metal>
0.0000

> <Gold.PLP.part.buried>
-3.2662

> <Gold.PLP.part.nonpolar>
-26.5845

> <Gold.PLP.part.repulsive>
0.0066

> <Gold.PLP.ligand.clash>
0.0000

> <Gold.PLP.ligand.torsion>
0.0000

> <Gold.PLP.Chemscore.Hbond>
1.0000

> <Gold.PLP.Chemscore.CHOScore>
0.0000

> <Gold.PLP.Chemscore.Metal>
0.0000

> <Gold.Chemscore.Hbonds>
donor molecule, donor type, donor heavy atom, donor atom, acceptor molecule, acceptor atom, score
      L1  H     4    15       P1  3187  1.00

> <Gold.PLP.Chemscore.Internal.Correction>
0.0000

