#       Name:                EN300-6732001_i001
#       Creating user name   aseyller
#       Creation time:       Fri Apr 21 16:41:01 2023


#       File generated by GOLD software.
#

@<TRIPOS>MOLECULE
EN300-6732001_i001|aminophenols|mol2|94|dock5
    15    15     1
SMALL
USER_CHARGES


@<TRIPOS>ATOM
      1 N1          29.8865  37.9306  38.5914 N.pl3          1 <1>                0.0000
      2 C2          30.7389  36.9178  38.1315 C.ar           1 <1>                0.0000
      3 C3          30.7912  35.6946  38.7950 C.ar           1 <1>                0.0000
      4 O4          30.0145  35.4802  39.8909 O.3            1 <1>                0.0000
      5 C5          31.6352  34.6964  38.3368 C.ar           1 <1>                0.0000
      6 C6          32.4249  34.9142  37.2226 C.ar           1 <1>                0.0000
      7 C7          32.3754  36.1284  36.5617 C.ar           1 <1>                0.0000
      8 Cl8         33.3694  36.3952  35.1637 Cl             1 <1>                0.0000
      9 C9          31.5292  37.1293  37.0096 C.ar           1 <1>                0.0000
     10 F10         31.4820  38.3145  36.3630 F              1 <1>                0.0000
     11 H11         31.6768  33.7473  38.8504 H              1 <1>                0.0000
     12 H12         33.0824  34.1343  36.8676 H              1 <1>                0.0000
     13 H13         29.3319  37.7801  39.3729 H              1 <1>                0.0000
     14 H14         29.8540  38.7836  38.1307 H              1 <1>                0.0000
     15 H15         30.4665  35.6400  40.7308 H              1 <1>                0.0000
@<TRIPOS>BOND
    1    1    2 1     
    2    1   13 1     
    3    1   14 1     
    4    2    3 ar    
    5    2    9 ar    
    6    3    4 1     
    7    3    5 ar    
    8    4   15 1     
    9    5    6 ar    
   10    5   11 1     
   11    6    7 ar    
   12    6   12 1     
   13    7    8 1     
   14    7    9 ar    
   15    9   10 1     
@<TRIPOS>SUBSTRUCTURE
      1 ****           1
@<TRIPOS>SET
DONOR_HYDROGENS      STATIC     ATOMS    <user>   **** ""
3 13 14 15
ATOM$RED        STATIC     ATOMS    COLORGROUP SYSTEM
3 13 14 15
@<TRIPOS>COMMENT
> <Gold.Version>
2022.2.0

> <Gold.Id.Protein>
1qkm|1qkm_protein|mol2

> <Gold.Protein.RotatedTorsions>
[  496  491  490  487 ] final  -84.51 input  -89.99 | X-H torsion

> <Gold.Protein.ActiveResidues>
 MET295  LEU298  THR299  LEU301  ALA302  GLU305  TRP335  MET336  LEU339  MET340 
 GLY342  LEU343  ARG346  PHE356  ILE373  ILE376  PHE377  LEU380  LYS471  GLY472 
 MET473  HIS475  LEU476  LEU477  ASN478  MET479  VAL484  VAL487 

> <Gold.Protein.RotatedAtoms>
   36.7068   34.6856   41.1469 H   0  0  0  0  0  0  0  0  0  0  0  0  # atno 496  bound_to 491 

> <Gold.Score>
     Score     S(PLP)   S(hbond)     S(cho)   S(metal)  DE(clash)   DE(tors)     intcor
     35.15     -32.15       1.00       0.00       0.00       0.00       0.00       0.00

> <Gold.PLP.Fitness>
35.1538

> <Gold.PLP.PLP>
-32.1538

> <Gold.PLP.part.hbond>
-1.0000

> <Gold.PLP.part.metal>
0.0000

> <Gold.PLP.part.buried>
-2.4870

> <Gold.PLP.part.nonpolar>
-28.7922

> <Gold.PLP.part.repulsive>
0.0000

> <Gold.PLP.ligand.clash>
0.0000

> <Gold.PLP.ligand.torsion>
0.0000

> <Gold.PLP.Chemscore.Hbond>
1.0000

> <Gold.PLP.Chemscore.CHOScore>
0.0000

> <Gold.PLP.Chemscore.Metal>
0.0000

> <Gold.Chemscore.Hbonds>
donor molecule, donor type, donor heavy atom, donor atom, acceptor molecule, acceptor atom, score
      L1  H     4    15       P1   470  1.00

> <Gold.PLP.Chemscore.Internal.Correction>
0.0000

