#       Name:                EN300-6732001_i001
#       Creating user name   aseyller
#       Creation time:       Fri Apr 21 16:41:03 2023


#       File generated by GOLD software.
#

@<TRIPOS>MOLECULE
EN300-6732001_i001|aminophenols|mol2|94|dock12
    15    15     1
SMALL
USER_CHARGES


@<TRIPOS>ATOM
      1 N1          32.0994  34.2422  38.0763 N.pl3          1 <1>                0.0000
      2 C2          31.6105  35.5154  37.7539 C.ar           1 <1>                0.0000
      3 C3          30.6890  36.1415  38.5893 C.ar           1 <1>                0.0000
      4 O4          30.2617  35.5185  39.7206 O.3            1 <1>                0.0000
      5 C5          30.2086  37.3999  38.2667 C.ar           1 <1>                0.0000
      6 C6          30.6429  38.0334  37.1166 C.ar           1 <1>                0.0000
      7 C7          31.5578  37.4138  36.2845 C.ar           1 <1>                0.0000
      8 Cl8         32.0988  38.2145  34.8424 Cl             1 <1>                0.0000
      9 C9          32.0481  36.1582  36.6036 C.ar           1 <1>                0.0000
     10 F10         32.9417  35.5544  35.7900 F              1 <1>                0.0000
     11 H11         29.4938  37.8867  38.9137 H              1 <1>                0.0000
     12 H12         30.2663  39.0146  36.8671 H              1 <1>                0.0000
     13 H13         31.7958  33.7959  38.8824 H              1 <1>                0.0000
     14 H14         32.7382  33.8054  37.4914 H              1 <1>                0.0000
     15 H15         30.9689  35.3121  40.3471 H              1 <1>                0.0000
@<TRIPOS>BOND
    1    1    2 1     
    2    1   13 1     
    3    1   14 1     
    4    2    3 ar    
    5    2    9 ar    
    6    3    4 1     
    7    3    5 ar    
    8    4   15 1     
    9    5    6 ar    
   10    5   11 1     
   11    6    7 ar    
   12    6   12 1     
   13    7    8 1     
   14    7    9 ar    
   15    9   10 1     
@<TRIPOS>SUBSTRUCTURE
      1 ****           1
@<TRIPOS>SET
DONOR_HYDROGENS      STATIC     ATOMS    <user>   **** ""
3 13 14 15
ATOM$RED        STATIC     ATOMS    COLORGROUP SYSTEM
3 13 14 15
@<TRIPOS>COMMENT
> <Gold.Version>
2022.2.0

> <Gold.Id.Protein>
1qkm|1qkm_protein|mol2

> <Gold.Protein.RotatedTorsions>
[  496  491  490  487 ] final  123.92 input  -89.99 | X-H torsion

> <Gold.Protein.ActiveResidues>
 MET295  LEU298  THR299  LEU301  ALA302  GLU305  TRP335  MET336  LEU339  MET340 
 GLY342  LEU343  ARG346  PHE356  ILE373  ILE376  PHE377  LEU380  LYS471  GLY472 
 MET473  HIS475  LEU476  LEU477  ASN478  MET479  VAL484  VAL487 

> <Gold.Protein.RotatedAtoms>
   37.1101   32.9510   41.5620 H   0  0  0  0  0  0  0  0  0  0  0  0  # atno 496  bound_to 491 

> <Gold.Score>
     Score     S(PLP)   S(hbond)     S(cho)   S(metal)  DE(clash)   DE(tors)     intcor
     33.42     -30.42       1.00       0.00       0.00       0.00       0.00       0.00

> <Gold.PLP.Fitness>
33.4182

> <Gold.PLP.PLP>
-30.4182

> <Gold.PLP.part.hbond>
-1.0000

> <Gold.PLP.part.metal>
0.0000

> <Gold.PLP.part.buried>
-3.1494

> <Gold.PLP.part.nonpolar>
-26.7369

> <Gold.PLP.part.repulsive>
0.0400

> <Gold.PLP.ligand.clash>
0.0000

> <Gold.PLP.ligand.torsion>
0.0000

> <Gold.PLP.Chemscore.Hbond>
1.0000

> <Gold.PLP.Chemscore.CHOScore>
0.0000

> <Gold.PLP.Chemscore.Metal>
0.0000

> <Gold.Chemscore.Hbonds>
donor molecule, donor type, donor heavy atom, donor atom, acceptor molecule, acceptor atom, score
      L1  H     4    15       P1   470  1.00

> <Gold.PLP.Chemscore.Internal.Correction>
0.0000

