#       Name:                EN300-6732001_i001
#       Creating user name   aseyller
#       Creation time:       Fri Apr 21 16:41:03 2023


#       File generated by GOLD software.
#

@<TRIPOS>MOLECULE
EN300-6732001_i001|aminophenols|mol2|94|dock13
    15    15     1
SMALL
USER_CHARGES


@<TRIPOS>ATOM
      1 N1          29.1046  35.8716  41.7440 N.pl3          1 <1>                0.0000
      2 C2          28.3415  36.4005  40.6943 C.ar           1 <1>                0.0000
      3 C3          26.9864  36.6627  40.8795 C.ar           1 <1>                0.0000
      4 O4          26.4008  36.4063  42.0802 O.3            1 <1>                0.0000
      5 C5          26.2361  37.1854  39.8392 C.ar           1 <1>                0.0000
      6 C6          26.8313  37.4461  38.6184 C.ar           1 <1>                0.0000
      7 C7          28.1770  37.1862  38.4313 C.ar           1 <1>                0.0000
      8 Cl8         28.9179  37.5158  36.8964 Cl             1 <1>                0.0000
      9 C9          28.9357  36.6698  39.4686 C.ar           1 <1>                0.0000
     10 F10         30.2499  36.4166  39.2842 F              1 <1>                0.0000
     11 H11         25.1850  37.3892  39.9814 H              1 <1>                0.0000
     12 H12         26.2437  37.8533  37.8087 H              1 <1>                0.0000
     13 H13         28.6891  35.6877  42.6010 H              1 <1>                0.0000
     14 H14         30.0475  35.6857  41.6123 H              1 <1>                0.0000
     15 H15         25.4404  36.5196  42.0817 H              1 <1>                0.0000
@<TRIPOS>BOND
    1    1    2 1     
    2    1   13 1     
    3    1   14 1     
    4    2    3 ar    
    5    2    9 ar    
    6    3    4 1     
    7    3    5 ar    
    8    4   15 1     
    9    5    6 ar    
   10    5   11 1     
   11    6    7 ar    
   12    6   12 1     
   13    7    8 1     
   14    7    9 ar    
   15    9   10 1     
@<TRIPOS>SUBSTRUCTURE
      1 ****           1
@<TRIPOS>SET
DONOR_HYDROGENS      STATIC     ATOMS    <user>   **** ""
3 13 14 15
ATOM$RED        STATIC     ATOMS    COLORGROUP SYSTEM
3 13 14 15
@<TRIPOS>COMMENT
> <Gold.Version>
2022.2.0

> <Gold.Id.Protein>
1qkm|1qkm_protein|mol2

> <Gold.Protein.RotatedTorsions>
[  496  491  490  487 ] final   -6.84 input  -89.99 | X-H torsion

> <Gold.Protein.ActiveResidues>
 MET295  LEU298  THR299  LEU301  ALA302  GLU305  TRP335  MET336  LEU339  MET340 
 GLY342  LEU343  ARG346  PHE356  ILE373  ILE376  PHE377  LEU380  LYS471  GLY472 
 MET473  HIS475  LEU476  LEU477  ASN478  MET479  VAL484  VAL487 

> <Gold.Protein.RotatedAtoms>
   36.2597   34.3081   42.1749 H   0  0  0  0  0  0  0  0  0  0  0  0  # atno 496  bound_to 491 

> <Gold.Score>
     Score     S(PLP)   S(hbond)     S(cho)   S(metal)  DE(clash)   DE(tors)     intcor
     38.52     -35.52       1.00       0.00       0.00       0.00       0.00       0.00

> <Gold.PLP.Fitness>
38.5198

> <Gold.PLP.PLP>
-35.5198

> <Gold.PLP.part.hbond>
-2.0000

> <Gold.PLP.part.metal>
0.0000

> <Gold.PLP.part.buried>
-4.0620

> <Gold.PLP.part.nonpolar>
-29.6488

> <Gold.PLP.part.repulsive>
0.0854

> <Gold.PLP.ligand.clash>
0.0000

> <Gold.PLP.ligand.torsion>
0.0000

> <Gold.PLP.Chemscore.Hbond>
1.0000

> <Gold.PLP.Chemscore.CHOScore>
0.0000

> <Gold.PLP.Chemscore.Metal>
0.0000

> <Gold.Chemscore.Hbonds>
donor molecule, donor type, donor heavy atom, donor atom, acceptor molecule, acceptor atom, score
      L1  H     1    14       P1   470  1.00

> <Gold.PLP.Chemscore.Internal.Correction>
0.0000

