#       Name:                EN300-6732001_i001
#       Creating user name   aseyller
#       Creation time:       Fri Apr 21 16:41:05 2023


#       File generated by GOLD software.
#

@<TRIPOS>MOLECULE
EN300-6732001_i001|aminophenols|mol2|94|dock20
    15    15     1
SMALL
USER_CHARGES


@<TRIPOS>ATOM
      1 N1          25.2016  37.3055  39.1011 N.pl3          1 <1>                0.0000
      2 C2          26.2423  36.7187  39.8336 C.ar           1 <1>                0.0000
      3 C3          25.9930  36.1837  41.0948 C.ar           1 <1>                0.0000
      4 O4          24.7383  36.2292  41.6183 O.3            1 <1>                0.0000
      5 C5          27.0247  35.6047  41.8152 C.ar           1 <1>                0.0000
      6 C6          28.3004  35.5583  41.2831 C.ar           1 <1>                0.0000
      7 C7          28.5512  36.0894  40.0307 C.ar           1 <1>                0.0000
      8 Cl8         30.1548  36.0280  39.3687 Cl             1 <1>                0.0000
      9 C9          27.5235  36.6641  39.3012 C.ar           1 <1>                0.0000
     10 F10         27.7702  37.1823  38.0782 F              1 <1>                0.0000
     11 H11         26.8328  35.1894  42.7935 H              1 <1>                0.0000
     12 H12         29.1032  35.1067  41.8472 H              1 <1>                0.0000
     13 H13         24.3062  37.3394  39.4725 H              1 <1>                0.0000
     14 H14         25.3775  37.6814  38.2243 H              1 <1>                0.0000
     15 H15         24.0805  35.7386  41.1066 H              1 <1>                0.0000
@<TRIPOS>BOND
    1    1    2 1     
    2    1   13 1     
    3    1   14 1     
    4    2    3 ar    
    5    2    9 ar    
    6    3    4 1     
    7    3    5 ar    
    8    4   15 1     
    9    5    6 ar    
   10    5   11 1     
   11    6    7 ar    
   12    6   12 1     
   13    7    8 1     
   14    7    9 ar    
   15    9   10 1     
@<TRIPOS>SUBSTRUCTURE
      1 ****           1
@<TRIPOS>SET
DONOR_HYDROGENS      STATIC     ATOMS    <user>   **** ""
3 13 14 15
ATOM$RED        STATIC     ATOMS    COLORGROUP SYSTEM
3 13 14 15
@<TRIPOS>COMMENT
> <Gold.Version>
2022.2.0

> <Gold.Id.Protein>
1qkm|1qkm_protein|mol2

> <Gold.Protein.RotatedTorsions>
[  496  491  490  487 ] final  104.67 input  -89.99 | X-H torsion

> <Gold.Protein.ActiveResidues>
 MET295  LEU298  THR299  LEU301  ALA302  GLU305  TRP335  MET336  LEU339  MET340 
 GLY342  LEU343  ARG346  PHE356  ILE373  ILE376  PHE377  LEU380  LYS471  GLY472 
 MET473  HIS475  LEU476  LEU477  ASN478  MET479  VAL484  VAL487 

> <Gold.Protein.RotatedAtoms>
   36.9532   32.9533   41.8355 H   0  0  0  0  0  0  0  0  0  0  0  0  # atno 496  bound_to 491 

> <Gold.Score>
     Score     S(PLP)   S(hbond)     S(cho)   S(metal)  DE(clash)   DE(tors)     intcor
     39.55     -33.36       2.06       0.00       0.00       0.00       0.00       0.00

> <Gold.PLP.Fitness>
39.5541

> <Gold.PLP.PLP>
-33.3603

> <Gold.PLP.part.hbond>
-3.8358

> <Gold.PLP.part.metal>
0.0000

> <Gold.PLP.part.buried>
3.2120

> <Gold.PLP.part.nonpolar>
-34.3197

> <Gold.PLP.part.repulsive>
0.1051

> <Gold.PLP.ligand.clash>
0.0000

> <Gold.PLP.ligand.torsion>
0.0000

> <Gold.PLP.Chemscore.Hbond>
2.0646

> <Gold.PLP.Chemscore.CHOScore>
0.0000

> <Gold.PLP.Chemscore.Metal>
0.0000

> <Gold.Chemscore.Hbonds>
donor molecule, donor type, donor heavy atom, donor atom, acceptor molecule, acceptor atom, score
      L1  H     1    13       P1  1131  0.26
      L1  H     4    15       P1  1131  0.93
      P1  H  1258  1270       L1     4  0.88

> <Gold.PLP.Chemscore.Internal.Correction>
0.0000

