#       Name:                EN300-6732001_i001
#       Creating user name   aseyller
#       Creation time:       Fri Apr 21 16:41:02 2023


#       File generated by GOLD software.
#

@<TRIPOS>MOLECULE
EN300-6732001_i001|aminophenols|mol2|94|dock8
    15    15     1
SMALL
USER_CHARGES


@<TRIPOS>ATOM
      1 N1          30.3077  35.9971  39.7814 N.pl3          1 <1>                0.0000
      2 C2          29.0208  36.4498  39.4605 C.ar           1 <1>                0.0000
      3 C3          28.7265  36.8529  38.1604 C.ar           1 <1>                0.0000
      4 O4          29.6878  36.8075  37.1990 O.3            1 <1>                0.0000
      5 C5          27.4532  37.2996  37.8478 C.ar           1 <1>                0.0000
      6 C6          26.4758  37.3458  38.8251 C.ar           1 <1>                0.0000
      7 C7          26.7653  36.9465  40.1175 C.ar           1 <1>                0.0000
      8 Cl8         25.5338  37.0070  41.3395 Cl             1 <1>                0.0000
      9 C9          28.0343  36.4922  40.4366 C.ar           1 <1>                0.0000
     10 F10         28.3153  36.1027  41.6993 F              1 <1>                0.0000
     11 H11         27.2236  37.6125  36.8399 H              1 <1>                0.0000
     12 H12         25.4839  37.6949  38.5787 H              1 <1>                0.0000
     13 H13         30.9948  35.9642  39.0975 H              1 <1>                0.0000
     14 H14         30.5124  35.7205  40.6883 H              1 <1>                0.0000
     15 H15         30.2816  36.0476  37.2720 H              1 <1>                0.0000
@<TRIPOS>BOND
    1    1    2 1     
    2    1   13 1     
    3    1   14 1     
    4    2    3 ar    
    5    2    9 ar    
    6    3    4 1     
    7    3    5 ar    
    8    4   15 1     
    9    5    6 ar    
   10    5   11 1     
   11    6    7 ar    
   12    6   12 1     
   13    7    8 1     
   14    7    9 ar    
   15    9   10 1     
@<TRIPOS>SUBSTRUCTURE
      1 ****           1
@<TRIPOS>SET
DONOR_HYDROGENS      STATIC     ATOMS    <user>   **** ""
3 13 14 15
ATOM$RED        STATIC     ATOMS    COLORGROUP SYSTEM
3 13 14 15
@<TRIPOS>COMMENT
> <Gold.Version>
2022.2.0

> <Gold.Id.Protein>
1qkm|1qkm_protein|mol2

> <Gold.Protein.RotatedTorsions>
[  496  491  490  487 ] final  -49.68 input  -89.99 | X-H torsion

> <Gold.Protein.ActiveResidues>
 MET295  LEU298  THR299  LEU301  ALA302  GLU305  TRP335  MET336  LEU339  MET340 
 GLY342  LEU343  ARG346  PHE356  ILE373  ILE376  PHE377  LEU380  LYS471  GLY472 
 MET473  HIS475  LEU476  LEU477  ASN478  MET479  VAL484  VAL487 

> <Gold.Protein.RotatedAtoms>
   36.4225   34.7028   41.6343 H   0  0  0  0  0  0  0  0  0  0  0  0  # atno 496  bound_to 491 

> <Gold.Score>
     Score     S(PLP)   S(hbond)     S(cho)   S(metal)  DE(clash)   DE(tors)     intcor
     40.68     -37.68       1.00       0.00       0.00       0.00       0.00       0.00

> <Gold.PLP.Fitness>
40.6785

> <Gold.PLP.PLP>
-37.6785

> <Gold.PLP.part.hbond>
-1.0000

> <Gold.PLP.part.metal>
0.0000

> <Gold.PLP.part.buried>
-2.2413

> <Gold.PLP.part.nonpolar>
-34.7886

> <Gold.PLP.part.repulsive>
0.0516

> <Gold.PLP.ligand.clash>
0.0000

> <Gold.PLP.ligand.torsion>
0.0000

> <Gold.PLP.Chemscore.Hbond>
1.0000

> <Gold.PLP.Chemscore.CHOScore>
0.0000

> <Gold.PLP.Chemscore.Metal>
0.0000

> <Gold.Chemscore.Hbonds>
donor molecule, donor type, donor heavy atom, donor atom, acceptor molecule, acceptor atom, score
      L1  H     1    14       P1   470  1.00

> <Gold.PLP.Chemscore.Internal.Correction>
0.0000

