#       Name:                EN300-6732001_i001
#       Creating user name   aseyller
#       Creation time:       Fri Apr 21 16:41:01 2023


#       File generated by GOLD software.
#

@<TRIPOS>MOLECULE
EN300-6732001_i001|aminophenols|mol2|94|dock6
    15    15     1
SMALL
USER_CHARGES


@<TRIPOS>ATOM
      1 N1          29.3229  35.7940  41.6540 N.pl3          1 <1>                0.0000
      2 C2          28.8382  36.1869  40.3992 C.ar           1 <1>                0.0000
      3 C3          29.6637  36.1197  39.2796 C.ar           1 <1>                0.0000
      4 O4          30.9424  35.6720  39.4019 O.3            1 <1>                0.0000
      5 C5          29.1803  36.5091  38.0414 C.ar           1 <1>                0.0000
      6 C6          27.8804  36.9642  37.9169 C.ar           1 <1>                0.0000
      7 C7          27.0582  37.0325  39.0273 C.ar           1 <1>                0.0000
      8 Cl8         25.4275  37.6049  38.8641 Cl             1 <1>                0.0000
      9 C9          27.5319  36.6387  40.2679 C.ar           1 <1>                0.0000
     10 F10         26.7277  36.7060  41.3513 F              1 <1>                0.0000
     11 H11         29.8194  36.4575  37.1723 H              1 <1>                0.0000
     12 H12         27.5061  37.2676  36.9502 H              1 <1>                0.0000
     13 H13         30.2345  35.4747  41.7436 H              1 <1>                0.0000
     14 H14         28.7481  35.8451  42.4337 H              1 <1>                0.0000
     15 H15         31.1451  35.2920  40.2678 H              1 <1>                0.0000
@<TRIPOS>BOND
    1    1    2 1     
    2    1   13 1     
    3    1   14 1     
    4    2    3 ar    
    5    2    9 ar    
    6    3    4 1     
    7    3    5 ar    
    8    4   15 1     
    9    5    6 ar    
   10    5   11 1     
   11    6    7 ar    
   12    6   12 1     
   13    7    8 1     
   14    7    9 ar    
   15    9   10 1     
@<TRIPOS>SUBSTRUCTURE
      1 ****           1
@<TRIPOS>SET
DONOR_HYDROGENS      STATIC     ATOMS    <user>   **** ""
3 13 14 15
ATOM$RED        STATIC     ATOMS    COLORGROUP SYSTEM
3 13 14 15
@<TRIPOS>COMMENT
> <Gold.Version>
2022.2.0

> <Gold.Id.Protein>
1qkm|1qkm_protein|mol2

> <Gold.Protein.RotatedTorsions>
[  496  491  490  487 ] final   -0.23 input  -89.99 | X-H torsion

> <Gold.Protein.ActiveResidues>
 MET295  LEU298  THR299  LEU301  ALA302  GLU305  TRP335  MET336  LEU339  MET340 
 GLY342  LEU343  ARG346  PHE356  ILE373  ILE376  PHE377  LEU380  LYS471  GLY472 
 MET473  HIS475  LEU476  LEU477  ASN478  MET479  VAL484  VAL487 

> <Gold.Protein.RotatedAtoms>
   36.2596   34.2169   42.2341 H   0  0  0  0  0  0  0  0  0  0  0  0  # atno 496  bound_to 491 

> <Gold.Score>
     Score     S(PLP)   S(hbond)     S(cho)   S(metal)  DE(clash)   DE(tors)     intcor
     38.64     -32.64       2.00       0.00       0.00       0.00       0.00       0.00

> <Gold.PLP.Fitness>
38.6377

> <Gold.PLP.PLP>
-32.6377

> <Gold.PLP.part.hbond>
-2.0000

> <Gold.PLP.part.metal>
0.0000

> <Gold.PLP.part.buried>
-2.3526

> <Gold.PLP.part.nonpolar>
-28.8247

> <Gold.PLP.part.repulsive>
0.0998

> <Gold.PLP.ligand.clash>
0.0000

> <Gold.PLP.ligand.torsion>
0.0000

> <Gold.PLP.Chemscore.Hbond>
2.0000

> <Gold.PLP.Chemscore.CHOScore>
0.0000

> <Gold.PLP.Chemscore.Metal>
0.0000

> <Gold.Chemscore.Hbonds>
donor molecule, donor type, donor heavy atom, donor atom, acceptor molecule, acceptor atom, score
      L1  H     1    13       P1   470  1.00
      L1  H     4    15       P1   470  1.00

> <Gold.PLP.Chemscore.Internal.Correction>
0.0000

