#       Name:                EN300-6732001_i001
#       Creating user name   aseyller
#       Creation time:       Fri Apr 21 16:41:03 2023


#       File generated by GOLD software.
#

@<TRIPOS>MOLECULE
EN300-6732001_i001|aminophenols|mol2|94|dock14
    15    15     1
SMALL
USER_CHARGES


@<TRIPOS>ATOM
      1 N1          27.6052  35.6395  41.3249 N.pl3          1 <1>                0.0000
      2 C2          27.3782  36.4214  40.1842 C.ar           1 <1>                0.0000
      3 C3          26.1089  36.9353  39.9314 C.ar           1 <1>                0.0000
      4 O4          25.0866  36.6797  40.7917 O.3            1 <1>                0.0000
      5 C5          25.8892  37.7075  38.8027 C.ar           1 <1>                0.0000
      6 C6          26.9283  37.9675  37.9280 C.ar           1 <1>                0.0000
      7 C7          28.1902  37.4579  38.1762 C.ar           1 <1>                0.0000
      8 Cl8         29.4902  37.7879  37.0742 Cl             1 <1>                0.0000
      9 C9          28.4196  36.6904  39.3062 C.ar           1 <1>                0.0000
     10 F10         29.6526  36.1935  39.5472 F              1 <1>                0.0000
     11 H11         24.9052  38.1068  38.6054 H              1 <1>                0.0000
     12 H12         26.7541  38.5696  37.0484 H              1 <1>                0.0000
     13 H13         26.8777  35.4557  41.9396 H              1 <1>                0.0000
     14 H14         28.4889  35.2788  41.4977 H              1 <1>                0.0000
     15 H15         24.2088  36.7544  40.3928 H              1 <1>                0.0000
@<TRIPOS>BOND
    1    1    2 1     
    2    1   13 1     
    3    1   14 1     
    4    2    3 ar    
    5    2    9 ar    
    6    3    4 1     
    7    3    5 ar    
    8    4   15 1     
    9    5    6 ar    
   10    5   11 1     
   11    6    7 ar    
   12    6   12 1     
   13    7    8 1     
   14    7    9 ar    
   15    9   10 1     
@<TRIPOS>SUBSTRUCTURE
      1 ****           1
@<TRIPOS>SET
DONOR_HYDROGENS      STATIC     ATOMS    <user>   **** ""
3 13 14 15
ATOM$RED        STATIC     ATOMS    COLORGROUP SYSTEM
3 13 14 15
@<TRIPOS>COMMENT
> <Gold.Version>
2022.2.0

> <Gold.Id.Protein>
1qkm|1qkm_protein|mol2

> <Gold.Protein.RotatedTorsions>
[  496  491  490  487 ] final   94.02 input  -89.99 | X-H torsion

> <Gold.Protein.ActiveResidues>
 MET295  LEU298  THR299  LEU301  ALA302  GLU305  TRP335  MET336  LEU339  MET340 
 GLY342  LEU343  ARG346  PHE356  ILE373  ILE376  PHE377  LEU380  LYS471  GLY472 
 MET473  HIS475  LEU476  LEU477  ASN478  MET479  VAL484  VAL487 

> <Gold.Protein.RotatedAtoms>
   36.8573   32.9976   41.9751 H   0  0  0  0  0  0  0  0  0  0  0  0  # atno 496  bound_to 491 

> <Gold.Score>
     Score     S(PLP)   S(hbond)     S(cho)   S(metal)  DE(clash)   DE(tors)     intcor
     39.16     -34.47       1.56       0.00       0.00       0.00       0.00       0.00

> <Gold.PLP.Fitness>
39.1570

> <Gold.PLP.PLP>
-34.4747

> <Gold.PLP.part.hbond>
-1.8003

> <Gold.PLP.part.metal>
0.0000

> <Gold.PLP.part.buried>
-3.7536

> <Gold.PLP.part.nonpolar>
-29.8386

> <Gold.PLP.part.repulsive>
0.0424

> <Gold.PLP.ligand.clash>
0.0000

> <Gold.PLP.ligand.torsion>
0.0000

> <Gold.PLP.Chemscore.Hbond>
1.5608

> <Gold.PLP.Chemscore.CHOScore>
0.0000

> <Gold.PLP.Chemscore.Metal>
0.0000

> <Gold.Chemscore.Hbonds>
donor molecule, donor type, donor heavy atom, donor atom, acceptor molecule, acceptor atom, score
      L1  H     1    13       P1   582  0.57
      L1  H     4    15       P1  1131  0.99

> <Gold.PLP.Chemscore.Internal.Correction>
0.0000

