#       Name:                EN300-6732001_i001
#       Creating user name   aseyller
#       Creation time:       Fri Apr 21 16:41:02 2023


#       File generated by GOLD software.
#

@<TRIPOS>MOLECULE
EN300-6732001_i001|aminophenols|mol2|94|dock7
    15    15     1
SMALL
USER_CHARGES


@<TRIPOS>ATOM
      1 N1          25.1985  37.2691  39.1352 N.pl3          1 <1>                0.0000
      2 C2          26.4850  36.9905  39.6162 C.ar           1 <1>                0.0000
      3 C3          26.6514  36.4264  40.8785 C.ar           1 <1>                0.0000
      4 O4          25.5652  36.1442  41.6471 O.3            1 <1>                0.0000
      5 C5          27.9248  36.1528  41.3497 C.ar           1 <1>                0.0000
      6 C6          29.0292  36.4396  40.5684 C.ar           1 <1>                0.0000
      7 C7          28.8671  37.0004  39.3143 C.ar           1 <1>                0.0000
      8 Cl8         30.2577  37.3581  38.3386 Cl             1 <1>                0.0000
      9 C9          27.5968  37.2709  38.8331 C.ar           1 <1>                0.0000
     10 F10         27.4401  37.8186  37.6081 F              1 <1>                0.0000
     11 H11         28.0554  35.7153  42.3285 H              1 <1>                0.0000
     12 H12         30.0211  36.2256  40.9384 H              1 <1>                0.0000
     13 H13         24.4225  37.0690  39.6818 H              1 <1>                0.0000
     14 H14         25.0843  37.6658  38.2574 H              1 <1>                0.0000
     15 H15         25.3666  36.8193  42.3105 H              1 <1>                0.0000
@<TRIPOS>BOND
    1    1    2 1     
    2    1   13 1     
    3    1   14 1     
    4    2    3 ar    
    5    2    9 ar    
    6    3    4 1     
    7    3    5 ar    
    8    4   15 1     
    9    5    6 ar    
   10    5   11 1     
   11    6    7 ar    
   12    6   12 1     
   13    7    8 1     
   14    7    9 ar    
   15    9   10 1     
@<TRIPOS>SUBSTRUCTURE
      1 ****           1
@<TRIPOS>SET
DONOR_HYDROGENS      STATIC     ATOMS    <user>   **** ""
3 13 14 15
ATOM$RED        STATIC     ATOMS    COLORGROUP SYSTEM
3 13 14 15
@<TRIPOS>COMMENT
> <Gold.Version>
2022.2.0

> <Gold.Id.Protein>
1qkm|1qkm_protein|mol2

> <Gold.Protein.RotatedTorsions>
[  496  491  490  487 ] final  -43.22 input  -89.99 | X-H torsion

> <Gold.Protein.ActiveResidues>
 MET295  LEU298  THR299  LEU301  ALA302  GLU305  TRP335  MET336  LEU339  MET340 
 GLY342  LEU343  ARG346  PHE356  ILE373  ILE376  PHE377  LEU380  LYS471  GLY472 
 MET473  HIS475  LEU476  LEU477  ASN478  MET479  VAL484  VAL487 

> <Gold.Protein.RotatedAtoms>
   36.3817   34.6702   41.7268 H   0  0  0  0  0  0  0  0  0  0  0  0  # atno 496  bound_to 491 

> <Gold.Score>
     Score     S(PLP)   S(hbond)     S(cho)   S(metal)  DE(clash)   DE(tors)     intcor
     36.88     -35.47       0.47       0.00       0.00       0.00       0.00       0.00

> <Gold.PLP.Fitness>
36.8808

> <Gold.PLP.PLP>
-35.4651

> <Gold.PLP.part.hbond>
-1.9228

> <Gold.PLP.part.metal>
0.0000

> <Gold.PLP.part.buried>
-2.8874

> <Gold.PLP.part.nonpolar>
-31.2536

> <Gold.PLP.part.repulsive>
0.1076

> <Gold.PLP.ligand.clash>
0.0000

> <Gold.PLP.ligand.torsion>
0.0000

> <Gold.PLP.Chemscore.Hbond>
0.4719

> <Gold.PLP.Chemscore.CHOScore>
0.0000

> <Gold.PLP.Chemscore.Metal>
0.0000

> <Gold.Chemscore.Hbonds>
donor molecule, donor type, donor heavy atom, donor atom, acceptor molecule, acceptor atom, score
      L1  H     1    13       P1  1131  0.47

> <Gold.PLP.Chemscore.Internal.Correction>
0.0000

