#       Name:                EN300-6732001_i001
#       Creating user name   aseyller
#       Creation time:       Fri Apr 21 16:41:00 2023


#       File generated by GOLD software.
#

@<TRIPOS>MOLECULE
EN300-6732001_i001|aminophenols|mol2|94|dock2
    15    15     1
SMALL
USER_CHARGES


@<TRIPOS>ATOM
      1 N1          25.6456  36.0290  41.5000 N.pl3          1 <1>                0.0000
      2 C2          26.8015  36.3102  40.7591 C.ar           1 <1>                0.0000
      3 C3          28.0471  35.8980  41.2255 C.ar           1 <1>                0.0000
      4 O4          28.1445  35.2210  42.4014 O.3            1 <1>                0.0000
      5 C5          29.1868  36.1782  40.4899 C.ar           1 <1>                0.0000
      6 C6          29.0881  36.8665  39.2944 C.ar           1 <1>                0.0000
      7 C7          27.8521  37.2776  38.8288 C.ar           1 <1>                0.0000
      8 Cl8         27.7351  38.1412  37.3275 Cl             1 <1>                0.0000
      9 C9          26.7070  36.9955  39.5552 C.ar           1 <1>                0.0000
     10 F10         25.5006  37.3977  39.0991 F              1 <1>                0.0000
     11 H11         30.1536  35.8591  40.8504 H              1 <1>                0.0000
     12 H12         29.9784  37.0840  38.7230 H              1 <1>                0.0000
     13 H13         25.7127  35.5466  42.3389 H              1 <1>                0.0000
     14 H14         24.7789  36.3202  41.1760 H              1 <1>                0.0000
     15 H15         27.3069  34.8515  42.7130 H              1 <1>                0.0000
@<TRIPOS>BOND
    1    1    2 1     
    2    1   13 1     
    3    1   14 1     
    4    2    3 ar    
    5    2    9 ar    
    6    3    4 1     
    7    3    5 ar    
    8    4   15 1     
    9    5    6 ar    
   10    5   11 1     
   11    6    7 ar    
   12    6   12 1     
   13    7    8 1     
   14    7    9 ar    
   15    9   10 1     
@<TRIPOS>SUBSTRUCTURE
      1 ****           1
@<TRIPOS>SET
DONOR_HYDROGENS      STATIC     ATOMS    <user>   **** ""
3 13 14 15
ATOM$RED        STATIC     ATOMS    COLORGROUP SYSTEM
3 13 14 15
@<TRIPOS>COMMENT
> <Gold.Version>
2022.2.0

> <Gold.Id.Protein>
1qkm|1qkm_protein|mol2

> <Gold.Protein.RotatedTorsions>
[  496  491  490  487 ] final  -81.98 input  -89.99 | X-H torsion

> <Gold.Protein.ActiveResidues>
 MET295  LEU298  THR299  LEU301  ALA302  GLU305  TRP335  MET336  LEU339  MET340 
 GLY342  LEU343  ARG346  PHE356  ILE373  ILE376  PHE377  LEU380  LYS471  GLY472 
 MET473  HIS475  LEU476  LEU477  ASN478  MET479  VAL484  VAL487 

> <Gold.Protein.RotatedAtoms>
   36.6838   34.6978   41.1793 H   0  0  0  0  0  0  0  0  0  0  0  0  # atno 496  bound_to 491 

> <Gold.Score>
     Score     S(PLP)   S(hbond)     S(cho)   S(metal)  DE(clash)   DE(tors)     intcor
     42.75     -36.75       2.00       0.00       0.00       0.00       0.00       0.00

> <Gold.PLP.Fitness>
42.7519

> <Gold.PLP.PLP>
-36.7519

> <Gold.PLP.part.hbond>
-2.8242

> <Gold.PLP.part.metal>
0.0000

> <Gold.PLP.part.buried>
-2.2053

> <Gold.PLP.part.nonpolar>
-31.8310

> <Gold.PLP.part.repulsive>
0.0821

> <Gold.PLP.ligand.clash>
0.0000

> <Gold.PLP.ligand.torsion>
0.0000

> <Gold.PLP.Chemscore.Hbond>
2.0000

> <Gold.PLP.Chemscore.CHOScore>
0.0000

> <Gold.PLP.Chemscore.Metal>
0.0000

> <Gold.Chemscore.Hbonds>
donor molecule, donor type, donor heavy atom, donor atom, acceptor molecule, acceptor atom, score
      L1  H     1    13       P1   582  1.00
      L1  H     4    15       P1   582  1.00

> <Gold.PLP.Chemscore.Internal.Correction>
0.0000

