#       Name:                EN300-6732001_i001
#       Creating user name   aseyller
#       Creation time:       Fri Apr 21 16:41:01 2023


#       File generated by GOLD software.
#

@<TRIPOS>MOLECULE
EN300-6732001_i001|aminophenols|mol2|94|dock4
    15    15     1
SMALL
USER_CHARGES


@<TRIPOS>ATOM
      1 N1          28.0509  35.5013  42.1175 N.pl3          1 <1>                0.0000
      2 C2          27.8195  35.9807  40.8211 C.ar           1 <1>                0.0000
      3 C3          26.5177  36.2133  40.3848 C.ar           1 <1>                0.0000
      4 O4          25.4678  35.9759  41.2165 O.3            1 <1>                0.0000
      5 C5          26.2938  36.6872  39.1027 C.ar           1 <1>                0.0000
      6 C6          27.3611  36.9286  38.2570 C.ar           1 <1>                0.0000
      7 C7          28.6554  36.6981  38.6875 C.ar           1 <1>                0.0000
      8 Cl8         29.9906  37.0031  37.6209 Cl             1 <1>                0.0000
      9 C9          28.8880  36.2306  39.9704 C.ar           1 <1>                0.0000
     10 F10         30.1526  36.0060  40.3892 F              1 <1>                0.0000
     11 H11         25.2847  36.8680  38.7629 H              1 <1>                0.0000
     12 H12         27.1837  37.2977  37.2576 H              1 <1>                0.0000
     13 H13         27.3037  35.3310  42.7122 H              1 <1>                0.0000
     14 H14         28.9580  35.3359  42.4188 H              1 <1>                0.0000
     15 H15         25.6916  35.4395  41.9894 H              1 <1>                0.0000
@<TRIPOS>BOND
    1    1    2 1     
    2    1   13 1     
    3    1   14 1     
    4    2    3 ar    
    5    2    9 ar    
    6    3    4 1     
    7    3    5 ar    
    8    4   15 1     
    9    5    6 ar    
   10    5   11 1     
   11    6    7 ar    
   12    6   12 1     
   13    7    8 1     
   14    7    9 ar    
   15    9   10 1     
@<TRIPOS>SUBSTRUCTURE
      1 ****           1
@<TRIPOS>SET
DONOR_HYDROGENS      STATIC     ATOMS    <user>   **** ""
3 13 14 15
ATOM$RED        STATIC     ATOMS    COLORGROUP SYSTEM
3 13 14 15
@<TRIPOS>COMMENT
> <Gold.Version>
2022.2.0

> <Gold.Id.Protein>
1qkm|1qkm_protein|mol2

> <Gold.Protein.RotatedTorsions>
[  496  491  490  487 ] final -171.83 input  -89.99 | X-H torsion

> <Gold.Protein.ActiveResidues>
 MET295  LEU298  THR299  LEU301  ALA302  GLU305  TRP335  MET336  LEU339  MET340 
 GLY342  LEU343  ARG346  PHE356  ILE373  ILE376  PHE377  LEU380  LYS471  GLY472 
 MET473  HIS475  LEU476  LEU477  ASN478  MET479  VAL484  VAL487 

> <Gold.Protein.RotatedAtoms>
   37.3080   33.5815   40.8072 H   0  0  0  0  0  0  0  0  0  0  0  0  # atno 496  bound_to 491 

> <Gold.Score>
     Score     S(PLP)   S(hbond)     S(cho)   S(metal)  DE(clash)   DE(tors)     intcor
     36.73     -30.73       2.00       0.00       0.00       0.00       0.00       0.00

> <Gold.PLP.Fitness>
36.7307

> <Gold.PLP.PLP>
-30.7307

> <Gold.PLP.part.hbond>
-2.2372

> <Gold.PLP.part.metal>
0.0000

> <Gold.PLP.part.buried>
0.7238

> <Gold.PLP.part.nonpolar>
-29.8727

> <Gold.PLP.part.repulsive>
0.0829

> <Gold.PLP.ligand.clash>
0.0000

> <Gold.PLP.ligand.torsion>
0.0000

> <Gold.PLP.Chemscore.Hbond>
2.0000

> <Gold.PLP.Chemscore.CHOScore>
0.0000

> <Gold.PLP.Chemscore.Metal>
0.0000

> <Gold.Chemscore.Hbonds>
donor molecule, donor type, donor heavy atom, donor atom, acceptor molecule, acceptor atom, score
      L1  H     1    13       P1   582  1.00
      L1  H     4    15       P1   582  1.00

> <Gold.PLP.Chemscore.Internal.Correction>
0.0000

