#       Name:                EN300-6732001_i001
#       Creating user name   aseyller
#       Creation time:       Fri Apr 21 16:41:00 2023


#       File generated by GOLD software.
#

@<TRIPOS>MOLECULE
EN300-6732001_i001|aminophenols|mol2|94|dock1
    15    15     1
SMALL
USER_CHARGES


@<TRIPOS>ATOM
      1 N1          27.7683  35.4925  42.1515 N.pl3          1 <1>                0.0000
      2 C2          27.2862  36.1698  41.0233 C.ar           1 <1>                0.0000
      3 C3          25.9727  36.6314  40.9946 C.ar           1 <1>                0.0000
      4 O4          25.1549  36.4262  42.0620 O.3            1 <1>                0.0000
      5 C5          25.5005  37.3003  39.8774 C.ar           1 <1>                0.0000
      6 C6          26.3317  37.5091  38.7920 C.ar           1 <1>                0.0000
      7 C7          27.6368  37.0513  38.8174 C.ar           1 <1>                0.0000
      8 Cl8         28.6750  37.3167  37.4517 Cl             1 <1>                0.0000
      9 C9          28.1186  36.3874  39.9335 C.ar           1 <1>                0.0000
     10 F10         29.3935  35.9409  39.9568 F              1 <1>                0.0000
     11 H11         24.4820  37.6589  39.8537 H              1 <1>                0.0000
     12 H12         25.9608  38.0306  37.9219 H              1 <1>                0.0000
     13 H13         27.1869  35.3447  42.9137 H              1 <1>                0.0000
     14 H14         28.6823  35.1680  42.1685 H              1 <1>                0.0000
     15 H15         25.3729  35.6383  42.5788 H              1 <1>                0.0000
@<TRIPOS>BOND
    1    1    2 1     
    2    1   13 1     
    3    1   14 1     
    4    2    3 ar    
    5    2    9 ar    
    6    3    4 1     
    7    3    5 ar    
    8    4   15 1     
    9    5    6 ar    
   10    5   11 1     
   11    6    7 ar    
   12    6   12 1     
   13    7    8 1     
   14    7    9 ar    
   15    9   10 1     
@<TRIPOS>SUBSTRUCTURE
      1 ****           1
@<TRIPOS>SET
DONOR_HYDROGENS      STATIC     ATOMS    <user>   **** ""
3 13 14 15
ATOM$RED        STATIC     ATOMS    COLORGROUP SYSTEM
3 13 14 15
@<TRIPOS>COMMENT
> <Gold.Version>
2022.2.0

> <Gold.Id.Protein>
1qkm|1qkm_protein|mol2

> <Gold.Protein.RotatedTorsions>
[  496  491  490  487 ] final  -51.08 input  -89.99 | X-H torsion

> <Gold.Protein.ActiveResidues>
 MET295  LEU298  THR299  LEU301  ALA302  GLU305  TRP335  MET336  LEU339  MET340 
 GLY342  LEU343  ARG346  PHE356  ILE373  ILE376  PHE377  LEU380  LYS471  GLY472 
 MET473  HIS475  LEU476  LEU477  ASN478  MET479  VAL484  VAL487 

> <Gold.Protein.RotatedAtoms>
   36.4319   34.7085   41.6140 H   0  0  0  0  0  0  0  0  0  0  0  0  # atno 496  bound_to 491 

> <Gold.Score>
     Score     S(PLP)   S(hbond)     S(cho)   S(metal)  DE(clash)   DE(tors)     intcor
     47.00     -39.13       2.62       0.00       0.00       0.00       0.00       0.00

> <Gold.PLP.Fitness>
46.9976

> <Gold.PLP.PLP>
-39.1256

> <Gold.PLP.part.hbond>
-2.9904

> <Gold.PLP.part.metal>
0.0000

> <Gold.PLP.part.buried>
-4.0930

> <Gold.PLP.part.nonpolar>
-32.8380

> <Gold.PLP.part.repulsive>
0.0739

> <Gold.PLP.ligand.clash>
0.0000

> <Gold.PLP.ligand.torsion>
0.0000

> <Gold.PLP.Chemscore.Hbond>
2.6240

> <Gold.PLP.Chemscore.CHOScore>
0.0000

> <Gold.PLP.Chemscore.Metal>
0.0000

> <Gold.Chemscore.Hbonds>
donor molecule, donor type, donor heavy atom, donor atom, acceptor molecule, acceptor atom, score
      L1  H     1    13       P1   582  1.00
      L1  H     4    15       P1   582  1.00
      P1  H  1258  1270       L1     4  0.62

> <Gold.PLP.Chemscore.Internal.Correction>
0.0000

