#       Name:                EN300-6732001_i001
#       Creating user name   aseyller
#       Creation time:       Fri Apr 21 16:41:04 2023


#       File generated by GOLD software.
#

@<TRIPOS>MOLECULE
EN300-6732001_i001|aminophenols|mol2|94|dock15
    15    15     1
SMALL
USER_CHARGES


@<TRIPOS>ATOM
      1 N1          26.5629  36.1598  41.0606 N.pl3          1 <1>                0.0000
      2 C2          27.6416  36.4965  40.2318 C.ar           1 <1>                0.0000
      3 C3          28.9404  36.1607  40.6053 C.ar           1 <1>                0.0000
      4 O4          29.1646  35.5046  41.7756 O.3            1 <1>                0.0000
      5 C5          30.0034  36.4955  39.7829 C.ar           1 <1>                0.0000
      6 C6          29.7757  37.1625  38.5930 C.ar           1 <1>                0.0000
      7 C7          28.4866  37.4978  38.2195 C.ar           1 <1>                0.0000
      8 Cl8         28.2076  38.3351  36.7247 Cl             1 <1>                0.0000
      9 C9          27.4176  37.1607  39.0332 C.ar           1 <1>                0.0000
     10 F10         26.1593  37.4889  38.6670 F              1 <1>                0.0000
     11 H11         31.0113  36.2357  40.0713 H              1 <1>                0.0000
     12 H12         30.6065  37.4227  37.9538 H              1 <1>                0.0000
     13 H13         26.7204  35.6923  41.8958 H              1 <1>                0.0000
     14 H14         25.6590  36.3979  40.8012 H              1 <1>                0.0000
     15 H15         30.0742  35.5731  42.0969 H              1 <1>                0.0000
@<TRIPOS>BOND
    1    1    2 1     
    2    1   13 1     
    3    1   14 1     
    4    2    3 ar    
    5    2    9 ar    
    6    3    4 1     
    7    3    5 ar    
    8    4   15 1     
    9    5    6 ar    
   10    5   11 1     
   11    6    7 ar    
   12    6   12 1     
   13    7    8 1     
   14    7    9 ar    
   15    9   10 1     
@<TRIPOS>SUBSTRUCTURE
      1 ****           1
@<TRIPOS>SET
DONOR_HYDROGENS      STATIC     ATOMS    <user>   **** ""
3 13 14 15
ATOM$RED        STATIC     ATOMS    COLORGROUP SYSTEM
3 13 14 15
@<TRIPOS>COMMENT
> <Gold.Version>
2022.2.0

> <Gold.Id.Protein>
1qkm|1qkm_protein|mol2

> <Gold.Protein.RotatedTorsions>
[  496  491  490  487 ] final  -18.43 input  -89.99 | X-H torsion

> <Gold.Protein.ActiveResidues>
 MET295  LEU298  THR299  LEU301  ALA302  GLU305  TRP335  MET336  LEU339  MET340 
 GLY342  LEU343  ARG346  PHE356  ILE373  ILE376  PHE377  LEU380  LYS471  GLY472 
 MET473  HIS475  LEU476  LEU477  ASN478  MET479  VAL484  VAL487 

> <Gold.Protein.RotatedAtoms>
   36.2769   34.4522   42.0516 H   0  0  0  0  0  0  0  0  0  0  0  0  # atno 496  bound_to 491 

> <Gold.Score>
     Score     S(PLP)   S(hbond)     S(cho)   S(metal)  DE(clash)   DE(tors)     intcor
     35.19     -31.17       1.34       0.00       0.00       0.00       0.00       0.00

> <Gold.PLP.Fitness>
35.1921

> <Gold.PLP.PLP>
-31.1683

> <Gold.PLP.part.hbond>
-2.3139

> <Gold.PLP.part.metal>
0.0000

> <Gold.PLP.part.buried>
-2.7590

> <Gold.PLP.part.nonpolar>
-27.4987

> <Gold.PLP.part.repulsive>
0.0300

> <Gold.PLP.ligand.clash>
0.0000

> <Gold.PLP.ligand.torsion>
0.0000

> <Gold.PLP.Chemscore.Hbond>
1.3413

> <Gold.PLP.Chemscore.CHOScore>
0.0000

> <Gold.PLP.Chemscore.Metal>
0.0000

> <Gold.Chemscore.Hbonds>
donor molecule, donor type, donor heavy atom, donor atom, acceptor molecule, acceptor atom, score
      L1  H     1    13       P1   582  0.34
      L1  H     4    15       P1   470  1.00

> <Gold.PLP.Chemscore.Internal.Correction>
0.0000

