#       Name:                EN300-6732001_i001
#       Creating user name   aseyller
#       Creation time:       Fri Apr 21 16:41:05 2023


#       File generated by GOLD software.
#

@<TRIPOS>MOLECULE
EN300-6732001_i001|aminophenols|mol2|94|dock18
    15    15     1
SMALL
USER_CHARGES


@<TRIPOS>ATOM
      1 N1          29.0407  36.1471  42.1646 N.pl3          1 <1>                0.0000
      2 C2          28.0379  36.5340  41.2653 C.ar           1 <1>                0.0000
      3 C3          26.7839  36.9119  41.7384 C.ar           1 <1>                0.0000
      4 O4          26.5298  36.9066  43.0747 O.3            1 <1>                0.0000
      5 C5          25.7958  37.2936  40.8459 C.ar           1 <1>                0.0000
      6 C6          26.0539  37.2991  39.4872 C.ar           1 <1>                0.0000
      7 C7          27.2985  36.9238  39.0143 C.ar           1 <1>                0.0000
      8 Cl8         27.6158  36.9329  37.3076 Cl             1 <1>                0.0000
      9 C9          28.2940  36.5472  39.9007 C.ar           1 <1>                0.0000
     10 F10         29.5089  36.1810  39.4372 F              1 <1>                0.0000
     11 H11         24.8227  37.5869  41.2113 H              1 <1>                0.0000
     12 H12         25.2815  37.5968  38.7934 H              1 <1>                0.0000
     13 H13         28.8617  36.1422  43.1179 H              1 <1>                0.0000
     14 H14         29.9125  35.8802  41.8334 H              1 <1>                0.0000
     15 H15         26.2857  36.0389  43.4253 H              1 <1>                0.0000
@<TRIPOS>BOND
    1    1    2 1     
    2    1   13 1     
    3    1   14 1     
    4    2    3 ar    
    5    2    9 ar    
    6    3    4 1     
    7    3    5 ar    
    8    4   15 1     
    9    5    6 ar    
   10    5   11 1     
   11    6    7 ar    
   12    6   12 1     
   13    7    8 1     
   14    7    9 ar    
   15    9   10 1     
@<TRIPOS>SUBSTRUCTURE
      1 ****           1
@<TRIPOS>SET
DONOR_HYDROGENS      STATIC     ATOMS    <user>   **** ""
3 13 14 15
ATOM$RED        STATIC     ATOMS    COLORGROUP SYSTEM
3 13 14 15
@<TRIPOS>COMMENT
> <Gold.Version>
2022.2.0

> <Gold.Id.Protein>
1qkm|1qkm_protein|mol2

> <Gold.Protein.RotatedTorsions>
[  496  491  490  487 ] final -171.90 input  -89.99 | X-H torsion

> <Gold.Protein.ActiveResidues>
 MET295  LEU298  THR299  LEU301  ALA302  GLU305  TRP335  MET336  LEU339  MET340 
 GLY342  LEU343  ARG346  PHE356  ILE373  ILE376  PHE377  LEU380  LYS471  GLY472 
 MET473  HIS475  LEU476  LEU477  ASN478  MET479  VAL484  VAL487 

> <Gold.Protein.RotatedAtoms>
   37.3081   33.5803   40.8077 H   0  0  0  0  0  0  0  0  0  0  0  0  # atno 496  bound_to 491 

> <Gold.Score>
     Score     S(PLP)   S(hbond)     S(cho)   S(metal)  DE(clash)   DE(tors)     intcor
     36.63     -30.85       1.93       0.00       0.00       0.00       0.00       0.00

> <Gold.PLP.Fitness>
36.6262

> <Gold.PLP.PLP>
-30.8475

> <Gold.PLP.part.hbond>
-2.2099

> <Gold.PLP.part.metal>
0.0000

> <Gold.PLP.part.buried>
1.0440

> <Gold.PLP.part.nonpolar>
-30.4611

> <Gold.PLP.part.repulsive>
0.0830

> <Gold.PLP.ligand.clash>
0.0000

> <Gold.PLP.ligand.torsion>
0.0000

> <Gold.PLP.Chemscore.Hbond>
1.9263

> <Gold.PLP.Chemscore.CHOScore>
0.0000

> <Gold.PLP.Chemscore.Metal>
0.0000

> <Gold.Chemscore.Hbonds>
donor molecule, donor type, donor heavy atom, donor atom, acceptor molecule, acceptor atom, score
      L1  H     1    14       P1   470  0.93
      L1  H     4    15       P1   582  1.00

> <Gold.PLP.Chemscore.Internal.Correction>
0.0000

