#       Name:                EN300-6732001_i001
#       Creating user name   aseyller
#       Creation time:       Fri Apr 21 16:41:02 2023


#       File generated by GOLD software.
#

@<TRIPOS>MOLECULE
EN300-6732001_i001|aminophenols|mol2|94|dock11
    15    15     1
SMALL
USER_CHARGES


@<TRIPOS>ATOM
      1 N1          25.8578  36.3193  41.7350 N.pl3          1 <1>                0.0000
      2 C2          26.6423  36.5428  40.5954 C.ar           1 <1>                0.0000
      3 C3          26.0970  37.1874  39.4880 C.ar           1 <1>                0.0000
      4 O4          24.8016  37.6018  39.5103 O.3            1 <1>                0.0000
      5 C5          26.8761  37.4061  38.3639 C.ar           1 <1>                0.0000
      6 C6          28.1931  36.9848  38.3409 C.ar           1 <1>                0.0000
      7 C7          28.7374  36.3438  39.4393 C.ar           1 <1>                0.0000
      8 Cl8         30.3913  35.8175  39.4040 Cl             1 <1>                0.0000
      9 C9          27.9669  36.1273  40.5698 C.ar           1 <1>                0.0000
     10 F10         28.4999  35.5011  41.6417 F              1 <1>                0.0000
     11 H11         26.4546  37.9059  37.5042 H              1 <1>                0.0000
     12 H12         28.7983  37.1563  37.4629 H              1 <1>                0.0000
     13 H13         24.9337  36.6137  41.7531 H              1 <1>                0.0000
     14 H14         26.2377  35.8666  42.5042 H              1 <1>                0.0000
     15 H15         24.1845  36.9452  39.8614 H              1 <1>                0.0000
@<TRIPOS>BOND
    1    1    2 1     
    2    1   13 1     
    3    1   14 1     
    4    2    3 ar    
    5    2    9 ar    
    6    3    4 1     
    7    3    5 ar    
    8    4   15 1     
    9    5    6 ar    
   10    5   11 1     
   11    6    7 ar    
   12    6   12 1     
   13    7    8 1     
   14    7    9 ar    
   15    9   10 1     
@<TRIPOS>SUBSTRUCTURE
      1 ****           1
@<TRIPOS>SET
DONOR_HYDROGENS      STATIC     ATOMS    <user>   **** ""
3 13 14 15
ATOM$RED        STATIC     ATOMS    COLORGROUP SYSTEM
3 13 14 15
@<TRIPOS>COMMENT
> <Gold.Version>
2022.2.0

> <Gold.Id.Protein>
1qkm|1qkm_protein|mol2

> <Gold.Protein.RotatedTorsions>
[  496  491  490  487 ] final  -26.62 input  -89.99 | X-H torsion

> <Gold.Protein.ActiveResidues>
 MET295  LEU298  THR299  LEU301  ALA302  GLU305  TRP335  MET336  LEU339  MET340 
 GLY342  LEU343  ARG346  PHE356  ILE373  ILE376  PHE377  LEU380  LYS471  GLY472 
 MET473  HIS475  LEU476  LEU477  ASN478  MET479  VAL484  VAL487 

> <Gold.Protein.RotatedAtoms>
   36.3017   34.5393   41.9517 H   0  0  0  0  0  0  0  0  0  0  0  0  # atno 496  bound_to 491 

> <Gold.Score>
     Score     S(PLP)   S(hbond)     S(cho)   S(metal)  DE(clash)   DE(tors)     intcor
     37.80     -31.92       1.96       0.00       0.00       0.00       0.00       0.00

> <Gold.PLP.Fitness>
37.8017

> <Gold.PLP.PLP>
-31.9217

> <Gold.PLP.part.hbond>
-2.0000

> <Gold.PLP.part.metal>
0.0000

> <Gold.PLP.part.buried>
2.7519

> <Gold.PLP.part.nonpolar>
-33.5901

> <Gold.PLP.part.repulsive>
0.0826

> <Gold.PLP.ligand.clash>
0.0000

> <Gold.PLP.ligand.torsion>
0.0000

> <Gold.PLP.Chemscore.Hbond>
1.9600

> <Gold.PLP.Chemscore.CHOScore>
0.0000

> <Gold.PLP.Chemscore.Metal>
0.0000

> <Gold.Chemscore.Hbonds>
donor molecule, donor type, donor heavy atom, donor atom, acceptor molecule, acceptor atom, score
      L1  H     1    14       P1   582  0.96
      L1  H     4    15       P1  1131  1.00

> <Gold.PLP.Chemscore.Internal.Correction>
0.0000

