#       Name:                plp ligand
#       Creating user name   aseyller
#       Creation time:       Fri Apr 21 16:40:59 2023


#       File generated by GOLD software.
#

@<TRIPOS>MOLECULE
plp ligand
    15    15     1
SMALL
USER_CHARGES


@<TRIPOS>ATOM
      1 N1           1.1425   1.9225  -0.0619 DONOR          1 <1>                0.0000
      2 C2           0.3497   0.7669  -0.0597 NONPOLAR       1 <1>                0.0000
      3 C3           0.9483  -0.4904  -0.0652 NONPOLAR       1 <1>                0.0000
      4 O4           2.3042  -0.5994  -0.0723 DONACC         1 <1>                0.0000
      5 C5           0.1607  -1.6298  -0.0630 NONPOLAR       1 <1>                0.0000
      6 C6          -1.2178  -1.5192  -0.0558 NONPOLAR       1 <1>                0.0000
      7 C7          -1.8153  -0.2716  -0.0508 NONPOLAR       1 <1>                0.0000
      8 Cl8         -3.5462  -0.1398  -0.0418 NONPOLAR       1 <1>                0.0000
      9 C9          -1.0347   0.8726  -0.0462 NONPOLAR       1 <1>                0.0000
     10 F10         -1.6198   2.0903  -0.0413 NONPOLAR       1 <1>                0.0000
     11 H11          0.6236  -2.6056  -0.0673                1 <1>                0.0000
     12 H12         -1.8296  -2.4093  -0.0545                1 <1>                0.0000
     13 H13          2.1096   1.8472  -0.0673                1 <1>                0.0000
     14 H14          0.7242   2.7977  -0.0621                1 <1>                0.0000
     15 H15          2.7008  -0.6326   0.8091                1 <1>                0.0000
@<TRIPOS>BOND
    1    1    2 1     
    2    1   13 1     
    3    1   14 1     
    4    2    3 ar    
    5    2    9 ar    
    6    3    4 1     
    7    3    5 ar    
    8    4   15 1     
    9    5    6 ar    
   10    5   11 1     
   11    6    7 ar    
   12    6   12 1     
   13    7    8 1     
   14    7    9 ar    
   15    9   10 1     
@<TRIPOS>SUBSTRUCTURE
      1 ****           1
@<TRIPOS>SET
DONOR_HYDROGENS      STATIC     ATOMS    <user>   **** ""
3 13 14 15
ATOM$RED        STATIC     ATOMS    COLORGROUP SYSTEM
3 13 14 15
