#       Name:                EN300-84592_i002
#       Creating user name   aseyller
#       Creation time:       Fri Apr 21 16:04:29 2023


#       File generated by GOLD software.
#

@<TRIPOS>MOLECULE
EN300-84592_i002|amine_1|mol2|1077|dock15
    24    23     1
SMALL
USER_CHARGES


@<TRIPOS>ATOM
      1 C1          27.5925  37.2848  38.0742 C.3            1 <1>                0.0000
      2 C2          29.0326  36.7720  38.1376 C.3            1 <1>                0.0000
      3 C3          29.9965  37.9599  38.1590 C.3            1 <1>                0.0000
      4 C4          29.2218  35.9388  39.4069 C.3            1 <1>                0.0000
      5 O5          30.5872  35.5298  39.5091 O.3            1 <1>                0.0000
      6 C6          28.8486  36.7799  40.6293 C.3            1 <1>                0.0000
      7 C7          28.5027  35.8553  41.7982 C.3            1 <1>                0.0000
      8 N8          27.1803  35.2561  41.5740 N.4            1 <1>                1.0000
      9 H9          27.4576  37.8783  37.1699 H              1 <1>                0.0000
     10 H10         26.9057  36.4385  38.0590 H              1 <1>                0.0000
     11 H11         27.3881  37.9029  38.9484 H              1 <1>                0.0000
     12 H12         29.2370  36.1538  37.2634 H              1 <1>                0.0000
     13 H13         29.7921  38.5780  39.0332 H              1 <1>                0.0000
     14 H14         31.0225  37.5946  38.2042 H              1 <1>                0.0000
     15 H15         29.8617  38.5535  37.2547 H              1 <1>                0.0000
     16 H16         28.5811  35.0582  39.3624 H              1 <1>                0.0000
     17 H17         29.6910  37.4143  40.9048 H              1 <1>                0.0000
     18 H18         27.9867  37.4033  40.3918 H              1 <1>                0.0000
     19 H19         29.2514  35.0663  41.8711 H              1 <1>                0.0000
     20 H20         28.4890  36.4299  42.7243 H              1 <1>                0.0000
     21 H21         30.8113  35.1142  40.3530 H              1 <1>                0.0000
     22 H22         26.5265  35.9756  41.3040 H              1 <1>                0.0000
     23 H23         27.2437  34.5666  40.8401 H              1 <1>                0.0000
     24 H24         26.8626  34.8146  42.4238 H              1 <1>                0.0000
@<TRIPOS>BOND
    1    1    2 1     
    2    1    9 1     
    3    1   10 1     
    4    1   11 1     
    5    2    3 1     
    6    2    4 1     
    7    2   12 1     
    8    3   13 1     
    9    3   14 1     
   10    3   15 1     
   11    4    5 1     
   12    4    6 1     
   13    4   16 1     
   14    5   21 1     
   15    6    7 1     
   16    6   17 1     
   17    6   18 1     
   18    7    8 1     
   19    7   19 1     
   20    7   20 1     
   21    8   22 1     
   22    8   23 1     
   23    8   24 1     
@<TRIPOS>SUBSTRUCTURE
      1 ****           1
@<TRIPOS>SET
DONOR_HYDROGENS      STATIC     ATOMS    <user>   **** ""
4 21 22 23 24
ATOM$RED        STATIC     ATOMS    COLORGROUP SYSTEM
4 21 22 23 24
@<TRIPOS>COMMENT
> <Gold.Version>
2022.2.0

> <Gold.Id.Protein>
1qkm|1qkm_protein|mol2

> <Gold.Protein.RotatedTorsions>
[  496  491  490  487 ] final   60.53 input  -89.99 | X-H torsion

> <Gold.Protein.ActiveResidues>
 MET295  LEU298  THR299  LEU301  ALA302  GLU305  TRP335  MET336  LEU339  MET340 
 GLY342  LEU343  ARG346  PHE356  ILE373  ILE376  PHE377  LEU380  LYS471  GLY472 
 MET473  HIS475  LEU476  LEU477  ASN478  MET479  VAL484  VAL487 

> <Gold.Protein.RotatedAtoms>
   36.5559   33.3125   42.2997 H   0  0  0  0  0  0  0  0  0  0  0  0  # atno 496  bound_to 491 

> <Gold.Score>
     Score     S(PLP)   S(hbond)     S(cho)   S(metal)  DE(clash)   DE(tors)     intcor
     36.65     -28.22       3.00       0.00       0.00       0.00       0.29       0.00

> <Gold.PLP.Fitness>
36.6451

> <Gold.PLP.PLP>
-28.2226

> <Gold.PLP.part.hbond>
-2.0000

> <Gold.PLP.part.metal>
0.0000

> <Gold.PLP.part.buried>
-2.9398

> <Gold.PLP.part.nonpolar>
-24.0961

> <Gold.PLP.part.repulsive>
0.0452

> <Gold.PLP.ligand.clash>
0.0000

> <Gold.PLP.ligand.torsion>
0.2890

> <Gold.PLP.Chemscore.Hbond>
3.0000

> <Gold.PLP.Chemscore.CHOScore>
0.0000

> <Gold.PLP.Chemscore.Metal>
0.0000

> <Gold.Chemscore.Hbonds>
donor molecule, donor type, donor heavy atom, donor atom, acceptor molecule, acceptor atom, score
      L1  H     5    21       P1   470  1.00
      L1  H     8    24       P1   582  2.00

> <Gold.PLP.Chemscore.Internal.Correction>
0.0004

