#       Name:                EN300-84592_i002
#       Creating user name   aseyller
#       Creation time:       Fri Apr 21 16:04:25 2023


#       File generated by GOLD software.
#

@<TRIPOS>MOLECULE
EN300-84592_i002|amine_1|mol2|1077|dock8
    24    23     1
SMALL
USER_CHARGES


@<TRIPOS>ATOM
      1 C1          30.4568  36.7398  38.3023 C.3            1 <1>                0.0000
      2 C2          30.0005  35.2964  38.5248 C.3            1 <1>                0.0000
      3 C3          31.2195  34.4124  38.7956 C.3            1 <1>                0.0000
      4 C4          29.0531  35.2403  39.7249 C.3            1 <1>                0.0000
      5 O5          29.6942  35.8154  40.8652 O.3            1 <1>                0.0000
      6 C6          27.7793  36.0255  39.4060 C.3            1 <1>                0.0000
      7 C7          26.7600  35.8218  40.5288 C.3            1 <1>                0.0000
      8 N8          27.3594  36.2140  41.8113 N.4            1 <1>                1.0000
      9 H9          31.1318  36.7798  37.4473 H              1 <1>                0.0000
     10 H10         29.5884  37.3697  38.1094 H              1 <1>                0.0000
     11 H11         30.9752  37.0982  39.1916 H              1 <1>                0.0000
     12 H12         29.4821  34.9381  37.6354 H              1 <1>                0.0000
     13 H13         31.7379  34.7707  39.6850 H              1 <1>                0.0000
     14 H14         30.8944  33.3840  38.9541 H              1 <1>                0.0000
     15 H15         31.8945  34.4523  37.9407 H              1 <1>                0.0000
     16 H16         28.7966  34.2024  39.9371 H              1 <1>                0.0000
     17 H17         28.0178  37.0856  39.3198 H              1 <1>                0.0000
     18 H18         27.3593  35.6701  38.4651 H              1 <1>                0.0000
     19 H19         25.8800  36.4355  40.3363 H              1 <1>                0.0000
     20 H20         26.4693  34.7721  40.5695 H              1 <1>                0.0000
     21 H21         30.5820  35.4706  41.0328 H              1 <1>                0.0000
     22 H22         27.0892  37.1603  42.0334 H              1 <1>                0.0000
     23 H23         27.0359  35.5926  42.5376 H              1 <1>                0.0000
     24 H24         28.3646  36.1581  41.7440 H              1 <1>                0.0000
@<TRIPOS>BOND
    1    1    2 1     
    2    1    9 1     
    3    1   10 1     
    4    1   11 1     
    5    2    3 1     
    6    2    4 1     
    7    2   12 1     
    8    3   13 1     
    9    3   14 1     
   10    3   15 1     
   11    4    5 1     
   12    4    6 1     
   13    4   16 1     
   14    5   21 1     
   15    6    7 1     
   16    6   17 1     
   17    6   18 1     
   18    7    8 1     
   19    7   19 1     
   20    7   20 1     
   21    8   22 1     
   22    8   23 1     
   23    8   24 1     
@<TRIPOS>SUBSTRUCTURE
      1 ****           1
@<TRIPOS>SET
DONOR_HYDROGENS      STATIC     ATOMS    <user>   **** ""
4 21 22 23 24
ATOM$RED        STATIC     ATOMS    COLORGROUP SYSTEM
4 21 22 23 24
@<TRIPOS>COMMENT
> <Gold.Version>
2022.2.0

> <Gold.Id.Protein>
1qkm|1qkm_protein|mol2

> <Gold.Protein.RotatedTorsions>
[  496  491  490  487 ] final   57.69 input  -89.99 | X-H torsion

> <Gold.Protein.ActiveResidues>
 MET295  LEU298  THR299  LEU301  ALA302  GLU305  TRP335  MET336  LEU339  MET340 
 GLY342  LEU343  ARG346  PHE356  ILE373  ILE376  PHE377  LEU380  LYS471  GLY472 
 MET473  HIS475  LEU476  LEU477  ASN478  MET479  VAL484  VAL487 

> <Gold.Protein.RotatedAtoms>
   36.5326   33.3491   42.3168 H   0  0  0  0  0  0  0  0  0  0  0  0  # atno 496  bound_to 491 

> <Gold.Score>
     Score     S(PLP)   S(hbond)     S(cho)   S(metal)  DE(clash)   DE(tors)     intcor
     35.12     -26.23       3.00       0.00       0.00       0.00       0.06       0.00

> <Gold.PLP.Fitness>
35.1238

> <Gold.PLP.PLP>
-26.2344

> <Gold.PLP.part.hbond>
-2.0000

> <Gold.PLP.part.metal>
0.0000

> <Gold.PLP.part.buried>
-3.6522

> <Gold.PLP.part.nonpolar>
-21.4180

> <Gold.PLP.part.repulsive>
0.0415

> <Gold.PLP.ligand.clash>
0.0000

> <Gold.PLP.ligand.torsion>
0.0557

> <Gold.PLP.Chemscore.Hbond>
3.0000

> <Gold.PLP.Chemscore.CHOScore>
0.0000

> <Gold.PLP.Chemscore.Metal>
0.0000

> <Gold.Chemscore.Hbonds>
donor molecule, donor type, donor heavy atom, donor atom, acceptor molecule, acceptor atom, score
      L1  H     5    21       P1   470  1.00
      L1  H     8    23       P1   582  2.00

> <Gold.PLP.Chemscore.Internal.Correction>
0.0007

