#       Name:                EN300-84592_i002
#       Creating user name   aseyller
#       Creation time:       Fri Apr 21 16:04:26 2023


#       File generated by GOLD software.
#

@<TRIPOS>MOLECULE
EN300-84592_i002|amine_1|mol2|1077|dock10
    24    23     1
SMALL
USER_CHARGES


@<TRIPOS>ATOM
      1 C1          30.0032  37.2937  38.8007 C.3            1 <1>                0.0000
      2 C2          29.5546  35.8328  38.8769 C.3            1 <1>                0.0000
      3 C3          30.7783  34.9325  39.0584 C.3            1 <1>                0.0000
      4 C4          28.6074  35.6515  40.0647 C.3            1 <1>                0.0000
      5 O5          29.2257  36.1590  41.2488 O.3            1 <1>                0.0000
      6 C6          27.3073  36.4140  39.8012 C.3            1 <1>                0.0000
      7 C7          26.2913  36.0834  40.8963 C.3            1 <1>                0.0000
      8 N8          25.1571  37.0129  40.8088 N.4            1 <1>                1.0000
      9 H9          30.6780  37.4229  37.9545 H              1 <1>                0.0000
     10 H10         29.1314  37.9351  38.6715 H              1 <1>                0.0000
     11 H11         30.5195  37.5637  39.7219 H              1 <1>                0.0000
     12 H12         29.0382  35.5628  37.9558 H              1 <1>                0.0000
     13 H13         31.2946  35.2026  39.9796 H              1 <1>                0.0000
     14 H14         30.4587  33.8917  39.1127 H              1 <1>                0.0000
     15 H15         31.4532  35.0617  38.2122 H              1 <1>                0.0000
     16 H16         28.3872  34.5920  40.1954 H              1 <1>                0.0000
     17 H17         27.5078  37.4854  39.8029 H              1 <1>                0.0000
     18 H18         26.9047  36.1213  38.8316 H              1 <1>                0.0000
     19 H19         25.9347  35.0618  40.7646 H              1 <1>                0.0000
     20 H20         26.7654  36.1797  41.8730 H              1 <1>                0.0000
     21 H21         30.0826  35.7577  41.4481 H              1 <1>                0.0000
     22 H22         25.4146  37.8050  40.2394 H              1 <1>                0.0000
     23 H23         24.3678  36.5419  40.3925 H              1 <1>                0.0000
     24 H24         24.9098  37.3300  41.7342 H              1 <1>                0.0000
@<TRIPOS>BOND
    1    1    2 1     
    2    1    9 1     
    3    1   10 1     
    4    1   11 1     
    5    2    3 1     
    6    2    4 1     
    7    2   12 1     
    8    3   13 1     
    9    3   14 1     
   10    3   15 1     
   11    4    5 1     
   12    4    6 1     
   13    4   16 1     
   14    5   21 1     
   15    6    7 1     
   16    6   17 1     
   17    6   18 1     
   18    7    8 1     
   19    7   19 1     
   20    7   20 1     
   21    8   22 1     
   22    8   23 1     
   23    8   24 1     
@<TRIPOS>SUBSTRUCTURE
      1 ****           1
@<TRIPOS>SET
DONOR_HYDROGENS      STATIC     ATOMS    <user>   **** ""
4 21 22 23 24
ATOM$RED        STATIC     ATOMS    COLORGROUP SYSTEM
4 21 22 23 24
@<TRIPOS>COMMENT
> <Gold.Version>
2022.2.0

> <Gold.Id.Protein>
1qkm|1qkm_protein|mol2

> <Gold.Protein.RotatedTorsions>
[  496  491  490  487 ] final  -30.76 input  -89.99 | X-H torsion

> <Gold.Protein.ActiveResidues>
 MET295  LEU298  THR299  LEU301  ALA302  GLU305  TRP335  MET336  LEU339  MET340 
 GLY342  LEU343  ARG346  PHE356  ILE373  ILE376  PHE377  LEU380  LYS471  GLY472 
 MET473  HIS475  LEU476  LEU477  ASN478  MET479  VAL484  VAL487 

> <Gold.Protein.RotatedAtoms>
   36.3181   34.5779   41.8981 H   0  0  0  0  0  0  0  0  0  0  0  0  # atno 496  bound_to 491 

> <Gold.Score>
     Score     S(PLP)   S(hbond)     S(cho)   S(metal)  DE(clash)   DE(tors)     intcor
     32.74     -26.99       1.99       0.00       0.00       0.00       0.11       0.00

> <Gold.PLP.Fitness>
32.7386

> <Gold.PLP.PLP>
-26.9932

> <Gold.PLP.part.hbond>
-2.0000

> <Gold.PLP.part.metal>
0.0000

> <Gold.PLP.part.buried>
-2.8064

> <Gold.PLP.part.nonpolar>
-22.5362

> <Gold.PLP.part.repulsive>
0.1570

> <Gold.PLP.ligand.clash>
0.0000

> <Gold.PLP.ligand.torsion>
0.1146

> <Gold.PLP.Chemscore.Hbond>
1.9913

> <Gold.PLP.Chemscore.CHOScore>
0.0000

> <Gold.PLP.Chemscore.Metal>
0.0000

> <Gold.Chemscore.Hbonds>
donor molecule, donor type, donor heavy atom, donor atom, acceptor molecule, acceptor atom, score
      L1  H     5    21       P1   470  1.00
      L1  H     8    23       P1  1131  0.99

> <Gold.PLP.Chemscore.Internal.Correction>
0.0007

