#       Name:                EN300-84592_i002
#       Creating user name   aseyller
#       Creation time:       Fri Apr 21 16:04:23 2023


#       File generated by GOLD software.
#

@<TRIPOS>MOLECULE
EN300-84592_i002|amine_1|mol2|1077|dock4
    24    23     1
SMALL
USER_CHARGES


@<TRIPOS>ATOM
      1 C1          29.9906  37.1577  38.5892 C.3            1 <1>                0.0000
      2 C2          28.5891  37.0440  39.1925 C.3            1 <1>                0.0000
      3 C3          27.5812  36.7301  38.0852 C.3            1 <1>                0.0000
      4 C4          28.5709  35.9214  40.2320 C.3            1 <1>                0.0000
      5 O5          29.1680  36.3853  41.4445 O.3            1 <1>                0.0000
      6 C6          27.1250  35.5013  40.5036 C.3            1 <1>                0.0000
      7 C7          26.3412  36.6958  41.0513 C.3            1 <1>                0.0000
      8 N8          25.0407  36.2375  41.5577 N.4            1 <1>                1.0000
      9 H9          30.0036  37.9575  37.8487 H              1 <1>                0.0000
     10 H10         30.7087  37.3813  39.3781 H              1 <1>                0.0000
     11 H11         30.2578  36.2153  38.1110 H              1 <1>                0.0000
     12 H12         28.3219  37.9864  39.6708 H              1 <1>                0.0000
     13 H13         27.8484  35.7877  37.6070 H              1 <1>                0.0000
     14 H14         26.5827  36.6491  38.5150 H              1 <1>                0.0000
     15 H15         27.5941  37.5299  37.3446 H              1 <1>                0.0000
     16 H16         29.1326  35.0671  39.8540 H              1 <1>                0.0000
     17 H17         26.6655  35.1597  39.5761 H              1 <1>                0.0000
     18 H18         27.1127  34.6928  41.2344 H              1 <1>                0.0000
     19 H19         26.9041  37.1587  41.8619 H              1 <1>                0.0000
     20 H20         26.1852  37.4238  40.2553 H              1 <1>                0.0000
     21 H21         29.9754  35.9137  41.6910 H              1 <1>                0.0000
     22 H22         24.5956  36.9858  42.0676 H              1 <1>                0.0000
     23 H23         24.4554  35.9642  40.7825 H              1 <1>                0.0000
     24 H24         25.1776  35.4478  42.1705 H              1 <1>                0.0000
@<TRIPOS>BOND
    1    1    2 1     
    2    1    9 1     
    3    1   10 1     
    4    1   11 1     
    5    2    3 1     
    6    2    4 1     
    7    2   12 1     
    8    3   13 1     
    9    3   14 1     
   10    3   15 1     
   11    4    5 1     
   12    4    6 1     
   13    4   16 1     
   14    5   21 1     
   15    6    7 1     
   16    6   17 1     
   17    6   18 1     
   18    7    8 1     
   19    7   19 1     
   20    7   20 1     
   21    8   22 1     
   22    8   23 1     
   23    8   24 1     
@<TRIPOS>SUBSTRUCTURE
      1 ****           1
@<TRIPOS>SET
DONOR_HYDROGENS      STATIC     ATOMS    <user>   **** ""
4 21 22 23 24
ATOM$RED        STATIC     ATOMS    COLORGROUP SYSTEM
4 21 22 23 24
@<TRIPOS>COMMENT
> <Gold.Version>
2022.2.0

> <Gold.Id.Protein>
1qkm|1qkm_protein|mol2

> <Gold.Protein.RotatedTorsions>
[  496  491  490  487 ] final   22.05 input  -89.99 | X-H torsion

> <Gold.Protein.ActiveResidues>
 MET295  LEU298  THR299  LEU301  ALA302  GLU305  TRP335  MET336  LEU339  MET340 
 GLY342  LEU343  ARG346  PHE356  ILE373  ILE376  PHE377  LEU380  LYS471  GLY472 
 MET473  HIS475  LEU476  LEU477  ASN478  MET479  VAL484  VAL487 

> <Gold.Protein.RotatedAtoms>
   36.3102   33.8798   42.3634 H   0  0  0  0  0  0  0  0  0  0  0  0  # atno 496  bound_to 491 

> <Gold.Score>
     Score     S(PLP)   S(hbond)     S(cho)   S(metal)  DE(clash)   DE(tors)     intcor
     38.74     -28.40       3.67       0.00       0.00       0.00       0.34       0.00

> <Gold.PLP.Fitness>
38.7355

> <Gold.PLP.PLP>
-28.3993

> <Gold.PLP.part.hbond>
-2.8153

> <Gold.PLP.part.metal>
0.0000

> <Gold.PLP.part.buried>
-4.0167

> <Gold.PLP.part.nonpolar>
-22.9394

> <Gold.PLP.part.repulsive>
0.5095

> <Gold.PLP.ligand.clash>
0.0000

> <Gold.PLP.ligand.torsion>
0.3429

> <Gold.PLP.Chemscore.Hbond>
3.6738

> <Gold.PLP.Chemscore.CHOScore>
0.0000

> <Gold.PLP.Chemscore.Metal>
0.0000

> <Gold.Chemscore.Hbonds>
donor molecule, donor type, donor heavy atom, donor atom, acceptor molecule, acceptor atom, score
      L1  H     5    21       P1   470  0.99
      L1  H     8    23       P1  1131  0.68
      L1  H     8    24       P1   582  2.00

> <Gold.PLP.Chemscore.Internal.Correction>
0.0007

