#       Name:                EN300-84592_i002
#       Creating user name   aseyller
#       Creation time:       Fri Apr 21 16:04:32 2023


#       File generated by GOLD software.
#

@<TRIPOS>MOLECULE
EN300-84592_i002|amine_1|mol2|1077|dock19
    24    23     1
SMALL
USER_CHARGES


@<TRIPOS>ATOM
      1 C1          28.2541  37.0836  38.2724 C.3            1 <1>                0.0000
      2 C2          27.9271  35.6942  38.8234 C.3            1 <1>                0.0000
      3 C3          29.2218  34.8989  39.0022 C.3            1 <1>                0.0000
      4 C4          27.2238  35.8341  40.1750 C.3            1 <1>                0.0000
      5 O5          28.1649  36.2677  41.1590 O.3            1 <1>                0.0000
      6 C6          26.0966  36.8622  40.0593 C.3            1 <1>                0.0000
      7 C7          25.4999  37.1228  41.4439 C.3            1 <1>                0.0000
      8 N8          24.5996  36.0194  41.8046 N.4            1 <1>                1.0000
      9 H9          28.7551  36.9840  37.3095 H              1 <1>                0.0000
     10 H10         27.3317  37.6503  38.1451 H              1 <1>                0.0000
     11 H11         28.9083  37.6065  38.9701 H              1 <1>                0.0000
     12 H12         27.2728  35.1714  38.1257 H              1 <1>                0.0000
     13 H13         29.8760  35.4217  39.6998 H              1 <1>                0.0000
     14 H14         28.9889  33.9090  39.3947 H              1 <1>                0.0000
     15 H15         29.7229  34.7992  38.0392 H              1 <1>                0.0000
     16 H16         26.8079  34.8706  40.4697 H              1 <1>                0.0000
     17 H17         26.4939  37.7928  39.6539 H              1 <1>                0.0000
     18 H18         25.3216  36.4786  39.3959 H              1 <1>                0.0000
     19 H19         26.3025  37.1917  42.1782 H              1 <1>                0.0000
     20 H20         24.9403  38.0580  41.4282 H              1 <1>                0.0000
     21 H21         29.0479  36.4458  40.8072 H              1 <1>                0.0000
     22 H22         23.9025  36.3526  42.4534 H              1 <1>                0.0000
     23 H23         24.1461  35.6701  40.9736 H              1 <1>                0.0000
     24 H24         25.1319  35.2777  42.2342 H              1 <1>                0.0000
@<TRIPOS>BOND
    1    1    2 1     
    2    1    9 1     
    3    1   10 1     
    4    1   11 1     
    5    2    3 1     
    6    2    4 1     
    7    2   12 1     
    8    3   13 1     
    9    3   14 1     
   10    3   15 1     
   11    4    5 1     
   12    4    6 1     
   13    4   16 1     
   14    5   21 1     
   15    6    7 1     
   16    6   17 1     
   17    6   18 1     
   18    7    8 1     
   19    7   19 1     
   20    7   20 1     
   21    8   22 1     
   22    8   23 1     
   23    8   24 1     
@<TRIPOS>SUBSTRUCTURE
      1 ****           1
@<TRIPOS>SET
DONOR_HYDROGENS      STATIC     ATOMS    <user>   **** ""
4 21 22 23 24
ATOM$RED        STATIC     ATOMS    COLORGROUP SYSTEM
4 21 22 23 24
@<TRIPOS>COMMENT
> <Gold.Version>
2022.2.0

> <Gold.Id.Protein>
1qkm|1qkm_protein|mol2

> <Gold.Protein.RotatedTorsions>
[  496  491  490  487 ] final   39.23 input  -89.99 | X-H torsion

> <Gold.Protein.ActiveResidues>
 MET295  LEU298  THR299  LEU301  ALA302  GLU305  TRP335  MET336  LEU339  MET340 
 GLY342  LEU343  ARG346  PHE356  ILE373  ILE376  PHE377  LEU380  LYS471  GLY472 
 MET473  HIS475  LEU476  LEU477  ASN478  MET479  VAL484  VAL487 

> <Gold.Protein.RotatedAtoms>
   36.3989   33.6130   42.3806 H   0  0  0  0  0  0  0  0  0  0  0  0  # atno 496  bound_to 491 

> <Gold.Score>
     Score     S(PLP)   S(hbond)     S(cho)   S(metal)  DE(clash)   DE(tors)     intcor
     35.42     -27.20       2.90       0.00       0.00       0.00       0.23       0.00

> <Gold.PLP.Fitness>
35.4181

> <Gold.PLP.PLP>
-27.1989

> <Gold.PLP.part.hbond>
-2.3142

> <Gold.PLP.part.metal>
0.0000

> <Gold.PLP.part.buried>
-2.3760

> <Gold.PLP.part.nonpolar>
-24.2867

> <Gold.PLP.part.repulsive>
2.0617

> <Gold.PLP.ligand.clash>
0.0000

> <Gold.PLP.ligand.torsion>
0.2345

> <Gold.PLP.Chemscore.Hbond>
2.8960

> <Gold.PLP.Chemscore.CHOScore>
0.0000

> <Gold.PLP.Chemscore.Metal>
0.0000

> <Gold.Chemscore.Hbonds>
donor molecule, donor type, donor heavy atom, donor atom, acceptor molecule, acceptor atom, score
      L1  H     8    23       P1  1131  0.90
      L1  H     8    24       P1   582  2.00

> <Gold.PLP.Chemscore.Internal.Correction>
0.0004

