#       Name:                EN300-84592_i002
#       Creating user name   aseyller
#       Creation time:       Fri Apr 21 16:04:32 2023


#       File generated by GOLD software.
#

@<TRIPOS>MOLECULE
EN300-84592_i002|amine_1|mol2|1077|dock20
    24    23     1
SMALL
USER_CHARGES


@<TRIPOS>ATOM
      1 C1          28.8631  34.6293  39.0977 C.3            1 <1>                0.0000
      2 C2          29.0864  36.0105  39.7169 C.3            1 <1>                0.0000
      3 C3          30.0084  36.8314  38.8131 C.3            1 <1>                0.0000
      4 C4          27.7427  36.7280  39.8611 C.3            1 <1>                0.0000
      5 O5          27.1294  36.8534  38.5765 O.3            1 <1>                0.0000
      6 C6          26.8298  35.9199  40.7854 C.3            1 <1>                0.0000
      7 C7          25.5595  36.7218  41.0760 C.3            1 <1>                0.0000
      8 N8          24.6053  35.8790  41.8088 N.4            1 <1>                1.0000
      9 H9          29.8203  34.1181  38.9950 H              1 <1>                0.0000
     10 H10         28.2061  34.0444  39.7416 H              1 <1>                0.0000
     11 H11         28.4036  34.7413  38.1156 H              1 <1>                0.0000
     12 H12         29.5457  35.8984  40.6990 H              1 <1>                0.0000
     13 H13         29.5490  36.9434  37.8310 H              1 <1>                0.0000
     14 H14         30.1676  37.8155  39.2542 H              1 <1>                0.0000
     15 H15         30.9657  36.3202  38.7103 H              1 <1>                0.0000
     16 H16         27.9038  37.7192  40.2852 H              1 <1>                0.0000
     17 H17         26.5635  34.9799  40.3021 H              1 <1>                0.0000
     18 H18         27.3506  35.7129  41.7202 H              1 <1>                0.0000
     19 H19         25.8108  37.5945  41.6787 H              1 <1>                0.0000
     20 H20         25.1114  37.0456  40.1367 H              1 <1>                0.0000
     21 H21         26.6456  36.0656  38.2930 H              1 <1>                0.0000
     22 H22         25.1032  35.1387  42.2800 H              1 <1>                0.0000
     23 H23         24.1144  36.4400  42.4889 H              1 <1>                0.0000
     24 H24         23.9427  35.4796  41.1611 H              1 <1>                0.0000
@<TRIPOS>BOND
    1    1    2 1     
    2    1    9 1     
    3    1   10 1     
    4    1   11 1     
    5    2    3 1     
    6    2    4 1     
    7    2   12 1     
    8    3   13 1     
    9    3   14 1     
   10    3   15 1     
   11    4    5 1     
   12    4    6 1     
   13    4   16 1     
   14    5   21 1     
   15    6    7 1     
   16    6   17 1     
   17    6   18 1     
   18    7    8 1     
   19    7   19 1     
   20    7   20 1     
   21    8   22 1     
   22    8   23 1     
   23    8   24 1     
@<TRIPOS>SUBSTRUCTURE
      1 ****           1
@<TRIPOS>SET
DONOR_HYDROGENS      STATIC     ATOMS    <user>   **** ""
4 21 22 23 24
ATOM$RED        STATIC     ATOMS    COLORGROUP SYSTEM
4 21 22 23 24
@<TRIPOS>COMMENT
> <Gold.Version>
2022.2.0

> <Gold.Id.Protein>
1qkm|1qkm_protein|mol2

> <Gold.Protein.RotatedTorsions>
[  496  491  490  487 ] final   65.77 input  -89.99 | X-H torsion

> <Gold.Protein.ActiveResidues>
 MET295  LEU298  THR299  LEU301  ALA302  GLU305  TRP335  MET336  LEU339  MET340 
 GLY342  LEU343  ARG346  PHE356  ILE373  ILE376  PHE377  LEU380  LYS471  GLY472 
 MET473  HIS475  LEU476  LEU477  ASN478  MET479  VAL484  VAL487 

> <Gold.Protein.RotatedAtoms>
   36.6003   33.2481   42.2634 H   0  0  0  0  0  0  0  0  0  0  0  0  # atno 496  bound_to 491 

> <Gold.Score>
     Score     S(PLP)   S(hbond)     S(cho)   S(metal)  DE(clash)   DE(tors)     intcor
     36.13     -27.49       2.91       0.00       0.00       0.00       0.04       0.00

> <Gold.PLP.Fitness>
36.1342

> <Gold.PLP.PLP>
-27.4859

> <Gold.PLP.part.hbond>
-2.5661

> <Gold.PLP.part.metal>
0.0000

> <Gold.PLP.part.buried>
-3.5786

> <Gold.PLP.part.nonpolar>
-23.1132

> <Gold.PLP.part.repulsive>
1.4751

> <Gold.PLP.ligand.clash>
0.0000

> <Gold.PLP.ligand.torsion>
0.0440

> <Gold.PLP.Chemscore.Hbond>
2.9120

> <Gold.PLP.Chemscore.CHOScore>
0.0000

> <Gold.PLP.Chemscore.Metal>
0.0000

> <Gold.Chemscore.Hbonds>
donor molecule, donor type, donor heavy atom, donor atom, acceptor molecule, acceptor atom, score
      L1  H     8    22       P1   582  1.98
      L1  H     8    24       P1  1131  0.93

> <Gold.PLP.Chemscore.Internal.Correction>
0.0004

