#       Name:                EN300-84592_i002
#       Creating user name   aseyller
#       Creation time:       Fri Apr 21 16:04:22 2023


#       File generated by GOLD software.
#

@<TRIPOS>MOLECULE
EN300-84592_i002|amine_1|mol2|1077|dock3
    24    23     1
SMALL
USER_CHARGES


@<TRIPOS>ATOM
      1 C1          28.6079  37.0722  38.7932 C.3            1 <1>                0.0000
      2 C2          28.5872  35.6931  39.4555 C.3            1 <1>                0.0000
      3 C3          29.8673  34.9359  39.0966 C.3            1 <1>                0.0000
      4 C4          28.5009  35.8578  40.9742 C.3            1 <1>                0.0000
      5 O5          29.6767  36.5163  41.4494 O.3            1 <1>                0.0000
      6 C6          27.2697  36.6947  41.3271 C.3            1 <1>                0.0000
      7 C7          26.0469  36.1365  40.5961 C.3            1 <1>                0.0000
      8 N8          24.9005  36.1034  41.5141 N.4            1 <1>                1.0000
      9 H9          28.6693  36.9549  37.7113 H              1 <1>                0.0000
     10 H10         27.6959  37.6117  39.0489 H              1 <1>                0.0000
     11 H11         29.4730  37.6326  39.1478 H              1 <1>                0.0000
     12 H12         27.7220  35.1328  39.1010 H              1 <1>                0.0000
     13 H13         30.7324  35.4963  39.4511 H              1 <1>                0.0000
     14 H14         29.8526  33.9533  39.5684 H              1 <1>                0.0000
     15 H15         29.9289  34.8185  38.0146 H              1 <1>                0.0000
     16 H16         28.4197  34.8767  41.4420 H              1 <1>                0.0000
     17 H17         27.0994  36.6548  42.4030 H              1 <1>                0.0000
     18 H18         27.4339  37.7285  41.0234 H              1 <1>                0.0000
     19 H19         25.8114  36.7734  39.7435 H              1 <1>                0.0000
     20 H20         26.2621  35.1267  40.2469 H              1 <1>                0.0000
     21 H21         30.4058  35.9167  41.6593 H              1 <1>                0.0000
     22 H22         24.6732  37.0432  41.8022 H              1 <1>                0.0000
     23 H23         24.1063  35.6939  41.0454 H              1 <1>                0.0000
     24 H24         25.1346  35.5503  42.3248 H              1 <1>                0.0000
@<TRIPOS>BOND
    1    1    2 1     
    2    1    9 1     
    3    1   10 1     
    4    1   11 1     
    5    2    3 1     
    6    2    4 1     
    7    2   12 1     
    8    3   13 1     
    9    3   14 1     
   10    3   15 1     
   11    4    5 1     
   12    4    6 1     
   13    4   16 1     
   14    5   21 1     
   15    6    7 1     
   16    6   17 1     
   17    6   18 1     
   18    7    8 1     
   19    7   19 1     
   20    7   20 1     
   21    8   22 1     
   22    8   23 1     
   23    8   24 1     
@<TRIPOS>SUBSTRUCTURE
      1 ****           1
@<TRIPOS>SET
DONOR_HYDROGENS      STATIC     ATOMS    <user>   **** ""
4 21 22 23 24
ATOM$RED        STATIC     ATOMS    COLORGROUP SYSTEM
4 21 22 23 24
@<TRIPOS>COMMENT
> <Gold.Version>
2022.2.0

> <Gold.Id.Protein>
1qkm|1qkm_protein|mol2

> <Gold.Protein.RotatedTorsions>
[  496  491  490  487 ] final  -31.16 input  -89.99 | X-H torsion

> <Gold.Protein.ActiveResidues>
 MET295  LEU298  THR299  LEU301  ALA302  GLU305  TRP335  MET336  LEU339  MET340 
 GLY342  LEU343  ARG346  PHE356  ILE373  ILE376  PHE377  LEU380  LYS471  GLY472 
 MET473  HIS475  LEU476  LEU477  ASN478  MET479  VAL484  VAL487 

> <Gold.Protein.RotatedAtoms>
   36.3198   34.5814   41.8929 H   0  0  0  0  0  0  0  0  0  0  0  0  # atno 496  bound_to 491 

> <Gold.Score>
     Score     S(PLP)   S(hbond)     S(cho)   S(metal)  DE(clash)   DE(tors)     intcor
     38.84     -27.59       4.00       0.00       0.00       0.00       0.38       0.00

> <Gold.PLP.Fitness>
38.8396

> <Gold.PLP.PLP>
-27.5937

> <Gold.PLP.part.hbond>
-3.0000

> <Gold.PLP.part.metal>
0.0000

> <Gold.PLP.part.buried>
-3.8884

> <Gold.PLP.part.nonpolar>
-21.5803

> <Gold.PLP.part.repulsive>
0.3325

> <Gold.PLP.ligand.clash>
0.0000

> <Gold.PLP.ligand.torsion>
0.3783

> <Gold.PLP.Chemscore.Hbond>
4.0000

> <Gold.PLP.Chemscore.CHOScore>
0.0000

> <Gold.PLP.Chemscore.Metal>
0.0000

> <Gold.Chemscore.Hbonds>
donor molecule, donor type, donor heavy atom, donor atom, acceptor molecule, acceptor atom, score
      L1  H     5    21       P1   470  1.00
      L1  H     8    23       P1  1131  1.00
      L1  H     8    24       P1   582  2.00

> <Gold.PLP.Chemscore.Internal.Correction>
0.0026

