#       Name:                EN300-84592_i002
#       Creating user name   aseyller
#       Creation time:       Fri Apr 21 16:04:28 2023


#       File generated by GOLD software.
#

@<TRIPOS>MOLECULE
EN300-84592_i002|amine_1|mol2|1077|dock13
    24    23     1
SMALL
USER_CHARGES


@<TRIPOS>ATOM
      1 C1          32.5800  35.6180  37.1500 C.3            1 <1>                0.0000
      2 C2          31.7119  36.6562  37.8639 C.3            1 <1>                0.0000
      3 C3          31.1660  37.6545  36.8411 C.3            1 <1>                0.0000
      4 C4          30.5464  35.9530  38.5625 C.3            1 <1>                0.0000
      5 O5          31.0520  34.9140  39.4032 O.3            1 <1>                0.0000
      6 C6          29.7746  36.9655  39.4110 C.3            1 <1>                0.0000
      7 C7          28.7843  36.2257  40.3127 C.3            1 <1>                0.0000
      8 N8          29.3968  35.9963  41.6281 N.4            1 <1>                1.0000
      9 H9          33.4104  36.1190  36.6524 H              1 <1>                0.0000
     10 H10         32.9689  34.9067  37.8787 H              1 <1>                0.0000
     11 H11         31.9791  35.0886  36.4105 H              1 <1>                0.0000
     12 H12         32.3128  37.1855  38.6035 H              1 <1>                0.0000
     13 H13         30.5652  37.1252  36.1016 H              1 <1>                0.0000
     14 H14         30.5476  38.3942  37.3497 H              1 <1>                0.0000
     15 H15         31.9964  38.1556  36.3434 H              1 <1>                0.0000
     16 H16         29.8804  35.5231  37.8143 H              1 <1>                0.0000
     17 H17         30.4737  37.5315  40.0267 H              1 <1>                0.0000
     18 H18         29.2313  37.6479  38.7575 H              1 <1>                0.0000
     19 H19         27.8826  36.8264  40.4315 H              1 <1>                0.0000
     20 H20         28.5262  35.2683  39.8601 H              1 <1>                0.0000
     21 H21         31.1885  35.1829  40.3221 H              1 <1>                0.0000
     22 H22         29.4931  36.8762  42.1122 H              1 <1>                0.0000
     23 H23         28.8109  35.3775  42.1684 H              1 <1>                0.0000
     24 H24         30.3067  35.5775  41.5071 H              1 <1>                0.0000
@<TRIPOS>BOND
    1    1    2 1     
    2    1    9 1     
    3    1   10 1     
    4    1   11 1     
    5    2    3 1     
    6    2    4 1     
    7    2   12 1     
    8    3   13 1     
    9    3   14 1     
   10    3   15 1     
   11    4    5 1     
   12    4    6 1     
   13    4   16 1     
   14    5   21 1     
   15    6    7 1     
   16    6   17 1     
   17    6   18 1     
   18    7    8 1     
   19    7   19 1     
   20    7   20 1     
   21    8   22 1     
   22    8   23 1     
   23    8   24 1     
@<TRIPOS>SUBSTRUCTURE
      1 ****           1
@<TRIPOS>SET
DONOR_HYDROGENS      STATIC     ATOMS    <user>   **** ""
4 21 22 23 24
ATOM$RED        STATIC     ATOMS    COLORGROUP SYSTEM
4 21 22 23 24
@<TRIPOS>COMMENT
> <Gold.Version>
2022.2.0

> <Gold.Id.Protein>
1qkm|1qkm_protein|mol2

> <Gold.Protein.RotatedTorsions>
[  496  491  490  487 ] final   22.37 input  -89.99 | X-H torsion

> <Gold.Protein.ActiveResidues>
 MET295  LEU298  THR299  LEU301  ALA302  GLU305  TRP335  MET336  LEU339  MET340 
 GLY342  LEU343  ARG346  PHE356  ILE373  ILE376  PHE377  LEU380  LYS471  GLY472 
 MET473  HIS475  LEU476  LEU477  ASN478  MET479  VAL484  VAL487 

> <Gold.Protein.RotatedAtoms>
   36.3115   33.8749   42.3644 H   0  0  0  0  0  0  0  0  0  0  0  0  # atno 496  bound_to 491 

> <Gold.Score>
     Score     S(PLP)   S(hbond)     S(cho)   S(metal)  DE(clash)   DE(tors)     intcor
     31.25     -25.92       2.00       0.00       0.00       0.00       0.33       0.00

> <Gold.PLP.Fitness>
31.2485

> <Gold.PLP.PLP>
-25.9161

> <Gold.PLP.part.hbond>
-2.0000

> <Gold.PLP.part.metal>
0.0000

> <Gold.PLP.part.buried>
-2.6814

> <Gold.PLP.part.nonpolar>
-21.5468

> <Gold.PLP.part.repulsive>
0.0933

> <Gold.PLP.ligand.clash>
0.0000

> <Gold.PLP.ligand.torsion>
0.3340

> <Gold.PLP.Chemscore.Hbond>
2.0000

> <Gold.PLP.Chemscore.CHOScore>
0.0000

> <Gold.PLP.Chemscore.Metal>
0.0000

> <Gold.Chemscore.Hbonds>
donor molecule, donor type, donor heavy atom, donor atom, acceptor molecule, acceptor atom, score
      L1  H     5    21       P1   470  1.00
      L1  H     8    24       P1   470  1.00

> <Gold.PLP.Chemscore.Internal.Correction>
0.0004

