#       Name:                EN300-84592_i002
#       Creating user name   aseyller
#       Creation time:       Fri Apr 21 16:04:27 2023


#       File generated by GOLD software.
#

@<TRIPOS>MOLECULE
EN300-84592_i002|amine_1|mol2|1077|dock11
    24    23     1
SMALL
USER_CHARGES


@<TRIPOS>ATOM
      1 C1          30.0077  37.2663  37.3561 C.3            1 <1>                0.0000
      2 C2          29.0627  37.2961  38.5591 C.3            1 <1>                0.0000
      3 C3          27.6190  37.4284  38.0703 C.3            1 <1>                0.0000
      4 C4          29.2138  36.0003  39.3586 C.3            1 <1>                0.0000
      5 O5          30.6001  35.7429  39.5908 O.3            1 <1>                0.0000
      6 C6          28.4896  36.1407  40.6989 C.3            1 <1>                0.0000
      7 C7          27.0088  35.8012  40.5166 C.3            1 <1>                0.0000
      8 N8          26.2497  36.2806  41.6792 N.4            1 <1>                1.0000
      9 H9          29.9001  38.1895  36.7866 H              1 <1>                0.0000
     10 H10         31.0362  37.1721  37.7044 H              1 <1>                0.0000
     11 H11         29.7599  36.4162  36.7205 H              1 <1>                0.0000
     12 H12         29.3105  38.1462  39.1948 H              1 <1>                0.0000
     13 H13         27.3712  36.5783  37.4347 H              1 <1>                0.0000
     14 H14         26.9457  37.4496  38.9274 H              1 <1>                0.0000
     15 H15         27.5113  38.3516  37.5008 H              1 <1>                0.0000
     16 H16         28.7800  35.1736  38.7959 H              1 <1>                0.0000
     17 H17         28.9322  35.4581  41.4243 H              1 <1>                0.0000
     18 H18         28.5858  37.1652  41.0584 H              1 <1>                0.0000
     19 H19         26.6341  36.2838  39.6139 H              1 <1>                0.0000
     20 H20         26.8921  34.7213  40.4265 H              1 <1>                0.0000
     21 H21         30.8081  35.5037  40.5044 H              1 <1>                0.0000
     22 H22         26.6513  37.1451  42.0099 H              1 <1>                0.0000
     23 H23         25.2890  36.4363  41.4126 H              1 <1>                0.0000
     24 H24         26.2871  35.5897  42.4136 H              1 <1>                0.0000
@<TRIPOS>BOND
    1    1    2 1     
    2    1    9 1     
    3    1   10 1     
    4    1   11 1     
    5    2    3 1     
    6    2    4 1     
    7    2   12 1     
    8    3   13 1     
    9    3   14 1     
   10    3   15 1     
   11    4    5 1     
   12    4    6 1     
   13    4   16 1     
   14    5   21 1     
   15    6    7 1     
   16    6   17 1     
   17    6   18 1     
   18    7    8 1     
   19    7   19 1     
   20    7   20 1     
   21    8   22 1     
   22    8   23 1     
   23    8   24 1     
@<TRIPOS>SUBSTRUCTURE
      1 ****           1
@<TRIPOS>SET
DONOR_HYDROGENS      STATIC     ATOMS    <user>   **** ""
4 21 22 23 24
ATOM$RED        STATIC     ATOMS    COLORGROUP SYSTEM
4 21 22 23 24
@<TRIPOS>COMMENT
> <Gold.Version>
2022.2.0

> <Gold.Id.Protein>
1qkm|1qkm_protein|mol2

> <Gold.Protein.RotatedTorsions>
[  496  491  490  487 ] final   18.79 input  -89.99 | X-H torsion

> <Gold.Protein.ActiveResidues>
 MET295  LEU298  THR299  LEU301  ALA302  GLU305  TRP335  MET336  LEU339  MET340 
 GLY342  LEU343  ARG346  PHE356  ILE373  ILE376  PHE377  LEU380  LYS471  GLY472 
 MET473  HIS475  LEU476  LEU477  ASN478  MET479  VAL484  VAL487 

> <Gold.Protein.RotatedAtoms>
   36.2980   33.9309   42.3518 H   0  0  0  0  0  0  0  0  0  0  0  0  # atno 496  bound_to 491 

> <Gold.Score>
     Score     S(PLP)   S(hbond)     S(cho)   S(metal)  DE(clash)   DE(tors)     intcor
     34.75     -26.66       3.00       0.00       0.00       0.00       0.46       0.00

> <Gold.PLP.Fitness>
34.7482

> <Gold.PLP.PLP>
-26.6582

> <Gold.PLP.part.hbond>
-2.0000

> <Gold.PLP.part.metal>
0.0000

> <Gold.PLP.part.buried>
-2.5222

> <Gold.PLP.part.nonpolar>
-22.3912

> <Gold.PLP.part.repulsive>
0.0640

> <Gold.PLP.ligand.clash>
0.0000

> <Gold.PLP.ligand.torsion>
0.4554

> <Gold.PLP.Chemscore.Hbond>
3.0000

> <Gold.PLP.Chemscore.CHOScore>
0.0000

> <Gold.PLP.Chemscore.Metal>
0.0000

> <Gold.Chemscore.Hbonds>
donor molecule, donor type, donor heavy atom, donor atom, acceptor molecule, acceptor atom, score
      L1  H     5    21       P1   470  1.00
      L1  H     8    24       P1   582  2.00

> <Gold.PLP.Chemscore.Internal.Correction>
0.0007

