#       Name:                EN300-84592_i002
#       Creating user name   aseyller
#       Creation time:       Fri Apr 21 16:04:21 2023


#       File generated by GOLD software.
#

@<TRIPOS>MOLECULE
EN300-84592_i002
    24    23     1
SMALL
USER_CHARGES


@<TRIPOS>ATOM
      1 C1           2.8480  -0.5998  -0.1894 C.3            1 <1>                0.0000
      2 C2           1.5954   0.1039   0.3368 C.3            1 <1>                0.0000
      3 C3           1.6273   1.5771  -0.0748 C.3            1 <1>                0.0000
      4 C4           0.3505  -0.5632  -0.2516 C.3            1 <1>                0.0000
      5 O5           0.3208  -1.9392   0.1328 O.3            1 <1>                0.0000
      6 C6          -0.9020   0.1405   0.2746 C.3            1 <1>                0.0000
      7 C7          -2.1402  -0.4439  -0.4083 C.3            1 <1>                0.0000
      8 N8          -3.3428   0.2318   0.0968 N.4            1 <1>                1.0000
      9 H9           3.7349  -0.1246   0.2298 H              1 <1>                0.0000
     10 H10          2.8253  -1.6494   0.1038 H              1 <1>                0.0000
     11 H11          2.8761  -0.5268  -1.2766 H              1 <1>                0.0000
     12 H12          1.5673   0.0308   1.4240 H              1 <1>                0.0000
     13 H13          1.6554   1.6501  -1.1620 H              1 <1>                0.0000
     14 H14          0.7349   2.0785   0.3001 H              1 <1>                0.0000
     15 H15          2.5142   2.0524   0.3444 H              1 <1>                0.0000
     16 H16          0.3787  -0.4902  -1.3388 H              1 <1>                0.0000
     17 H17         -0.9769  -0.0083   1.3518 H              1 <1>                0.0000
     18 H18         -0.8373   1.2069   0.0588 H              1 <1>                0.0000
     19 H19         -2.0652  -0.2950  -1.4855 H              1 <1>                0.0000
     20 H20         -2.2049  -1.5103  -0.1925 H              1 <1>                0.0000
     21 H21          0.2949  -2.0800   1.0892 H              1 <1>                0.0000
     22 H22         -4.1593  -0.1536  -0.3535 H              1 <1>                0.0000
     23 H23         -3.4121   0.0940   1.0940 H              1 <1>                0.0000
     24 H24         -3.2829   1.2190  -0.1029 H              1 <1>                0.0000
@<TRIPOS>BOND
    1    1    2 1     
    2    1    9 1     
    3    1   10 1     
    4    1   11 1     
    5    2    3 1     
    6    2    4 1     
    7    2   12 1     
    8    3   13 1     
    9    3   14 1     
   10    3   15 1     
   11    4    5 1     
   12    4    6 1     
   13    4   16 1     
   14    5   21 1     
   15    6    7 1     
   16    6   17 1     
   17    6   18 1     
   18    7    8 1     
   19    7   19 1     
   20    7   20 1     
   21    8   22 1     
   22    8   23 1     
   23    8   24 1     
@<TRIPOS>SUBSTRUCTURE
      1 ****           1
@<TRIPOS>SET
DONOR_HYDROGENS      STATIC     ATOMS    <user>   **** ""
4 21 22 23 24
ATOM$RED        STATIC     ATOMS    COLORGROUP SYSTEM
4 21 22 23 24
