#       Name:                EN300-84592_i002
#       Creating user name   aseyller
#       Creation time:       Fri Apr 21 16:04:27 2023


#       File generated by GOLD software.
#

@<TRIPOS>MOLECULE
EN300-84592_i002|amine_1|mol2|1077|dock12
    24    23     1
SMALL
USER_CHARGES


@<TRIPOS>ATOM
      1 C1          30.8693  36.0303  38.6648 C.3            1 <1>                0.0000
      2 C2          29.9698  37.2679  38.6457 C.3            1 <1>                0.0000
      3 C3          29.5528  37.5731  37.2057 C.3            1 <1>                0.0000
      4 C4          28.7231  37.0053  39.4929 C.3            1 <1>                0.0000
      5 O5          28.0018  35.8984  38.9485 O.3            1 <1>                0.0000
      6 C6          29.1409  36.6849  40.9295 C.3            1 <1>                0.0000
      7 C7          27.8928  36.5219  41.7993 C.3            1 <1>                0.0000
      8 N8          27.3029  35.1970  41.5659 N.4            1 <1>                1.0000
      9 H9          31.7575  36.2174  38.0613 H              1 <1>                0.0000
     10 H10         31.1664  35.8129  39.6907 H              1 <1>                0.0000
     11 H11         30.3248  35.1791  38.2560 H              1 <1>                0.0000
     12 H12         30.5143  38.1191  39.0546 H              1 <1>                0.0000
     13 H13         29.0084  36.7219  36.7969 H              1 <1>                0.0000
     14 H14         28.9120  38.4548  37.1921 H              1 <1>                0.0000
     15 H15         30.4410  37.7602  36.6021 H              1 <1>                0.0000
     16 H16         28.0875  37.8908  39.4883 H              1 <1>                0.0000
     17 H17         29.7164  35.7593  40.9426 H              1 <1>                0.0000
     18 H18         29.7523  37.4984  41.3200 H              1 <1>                0.0000
     19 H19         28.1673  36.6175  42.8499 H              1 <1>                0.0000
     20 H20         27.1672  37.2933  41.5418 H              1 <1>                0.0000
     21 H21         27.7586  36.0063  38.0188 H              1 <1>                0.0000
     22 H22         26.6364  35.2540  40.8106 H              1 <1>                0.0000
     23 H23         28.0315  34.5426  41.3230 H              1 <1>                0.0000
     24 H24         26.8358  34.8844  42.4039 H              1 <1>                0.0000
@<TRIPOS>BOND
    1    1    2 1     
    2    1    9 1     
    3    1   10 1     
    4    1   11 1     
    5    2    3 1     
    6    2    4 1     
    7    2   12 1     
    8    3   13 1     
    9    3   14 1     
   10    3   15 1     
   11    4    5 1     
   12    4    6 1     
   13    4   16 1     
   14    5   21 1     
   15    6    7 1     
   16    6   17 1     
   17    6   18 1     
   18    7    8 1     
   19    7   19 1     
   20    7   20 1     
   21    8   22 1     
   22    8   23 1     
   23    8   24 1     
@<TRIPOS>SUBSTRUCTURE
      1 ****           1
@<TRIPOS>SET
DONOR_HYDROGENS      STATIC     ATOMS    <user>   **** ""
4 21 22 23 24
ATOM$RED        STATIC     ATOMS    COLORGROUP SYSTEM
4 21 22 23 24
@<TRIPOS>COMMENT
> <Gold.Version>
2022.2.0

> <Gold.Id.Protein>
1qkm|1qkm_protein|mol2

> <Gold.Protein.RotatedTorsions>
[  496  491  490  487 ] final    8.17 input  -89.99 | X-H torsion

> <Gold.Protein.ActiveResidues>
 MET295  LEU298  THR299  LEU301  ALA302  GLU305  TRP335  MET336  LEU339  MET340 
 GLY342  LEU343  ARG346  PHE356  ILE373  ILE376  PHE377  LEU380  LYS471  GLY472 
 MET473  HIS475  LEU476  LEU477  ASN478  MET479  VAL484  VAL487 

> <Gold.Protein.RotatedAtoms>
   36.2696   34.0939   42.2962 H   0  0  0  0  0  0  0  0  0  0  0  0  # atno 496  bound_to 491 

> <Gold.Score>
     Score     S(PLP)   S(hbond)     S(cho)   S(metal)  DE(clash)   DE(tors)     intcor
     32.67     -26.85       2.00       0.00       0.00       0.00       0.09       0.00

> <Gold.PLP.Fitness>
32.6747

> <Gold.PLP.PLP>
-26.8498

> <Gold.PLP.part.hbond>
-1.0000

> <Gold.PLP.part.metal>
0.0000

> <Gold.PLP.part.buried>
-2.8602

> <Gold.PLP.part.nonpolar>
-23.2522

> <Gold.PLP.part.repulsive>
0.0516

> <Gold.PLP.ligand.clash>
0.0000

> <Gold.PLP.ligand.torsion>
0.0879

> <Gold.PLP.Chemscore.Hbond>
2.0000

> <Gold.PLP.Chemscore.CHOScore>
0.0000

> <Gold.PLP.Chemscore.Metal>
0.0000

> <Gold.Chemscore.Hbonds>
donor molecule, donor type, donor heavy atom, donor atom, acceptor molecule, acceptor atom, score
      L1  H     8    24       P1   582  2.00

> <Gold.PLP.Chemscore.Internal.Correction>
0.0007

