#       Name:                EN300-84592_i002
#       Creating user name   aseyller
#       Creation time:       Fri Apr 21 16:04:24 2023


#       File generated by GOLD software.
#

@<TRIPOS>MOLECULE
EN300-84592_i002|amine_1|mol2|1077|dock6
    24    23     1
SMALL
USER_CHARGES


@<TRIPOS>ATOM
      1 C1          31.2881  36.7210  37.3562 C.3            1 <1>                0.0000
      2 C2          30.3749  37.3001  38.4387 C.3            1 <1>                0.0000
      3 C3          29.3158  38.1926  37.7886 C.3            1 <1>                0.0000
      4 C4          29.6880  36.1584  39.1908 C.3            1 <1>                0.0000
      5 O5          30.6655  35.1968  39.5928 O.3            1 <1>                0.0000
      6 C6          28.9814  36.7154  40.4283 C.3            1 <1>                0.0000
      7 C7          28.3485  35.5657  41.2149 C.3            1 <1>                0.0000
      8 N8          27.3064  36.0961  42.1041 N.4            1 <1>                1.0000
      9 H9          31.7775  37.5344  36.8204 H              1 <1>                0.0000
     10 H10         32.0426  36.0852  37.8193 H              1 <1>                0.0000
     11 H11         30.6947  36.1310  36.6577 H              1 <1>                0.0000
     12 H12         30.9684  37.8901  39.1372 H              1 <1>                0.0000
     13 H13         28.7224  37.6025  37.0902 H              1 <1>                0.0000
     14 H14         28.6653  38.6052  38.5598 H              1 <1>                0.0000
     15 H15         29.8052  39.0060  37.2528 H              1 <1>                0.0000
     16 H16         28.9564  35.6819  38.5383 H              1 <1>                0.0000
     17 H17         29.7055  37.2316  41.0586 H              1 <1>                0.0000
     18 H18         28.2049  37.4150  40.1192 H              1 <1>                0.0000
     19 H19         27.9050  34.8517  40.5209 H              1 <1>                0.0000
     20 H20         29.1142  35.0673  41.8092 H              1 <1>                0.0000
     21 H21         30.9895  35.3190  40.4958 H              1 <1>                0.0000
     22 H22         27.0728  35.4032  42.7993 H              1 <1>                0.0000
     23 H23         27.6461  36.9294  42.5606 H              1 <1>                0.0000
     24 H24         26.4847  36.3203  41.5631 H              1 <1>                0.0000
@<TRIPOS>BOND
    1    1    2 1     
    2    1    9 1     
    3    1   10 1     
    4    1   11 1     
    5    2    3 1     
    6    2    4 1     
    7    2   12 1     
    8    3   13 1     
    9    3   14 1     
   10    3   15 1     
   11    4    5 1     
   12    4    6 1     
   13    4   16 1     
   14    5   21 1     
   15    6    7 1     
   16    6   17 1     
   17    6   18 1     
   18    7    8 1     
   19    7   19 1     
   20    7   20 1     
   21    8   22 1     
   22    8   23 1     
   23    8   24 1     
@<TRIPOS>SUBSTRUCTURE
      1 ****           1
@<TRIPOS>SET
DONOR_HYDROGENS      STATIC     ATOMS    <user>   **** ""
4 21 22 23 24
ATOM$RED        STATIC     ATOMS    COLORGROUP SYSTEM
4 21 22 23 24
@<TRIPOS>COMMENT
> <Gold.Version>
2022.2.0

> <Gold.Id.Protein>
1qkm|1qkm_protein|mol2

> <Gold.Protein.RotatedTorsions>
[  496  491  490  487 ] final  163.98 input  -89.99 | X-H torsion

> <Gold.Protein.ActiveResidues>
 MET295  LEU298  THR299  LEU301  ALA302  GLU305  TRP335  MET336  LEU339  MET340 
 GLY342  LEU343  ARG346  PHE356  ILE373  ILE376  PHE377  LEU380  LYS471  GLY472 
 MET473  HIS475  LEU476  LEU477  ASN478  MET479  VAL484  VAL487 

> <Gold.Protein.RotatedAtoms>
   37.3060   33.2512   41.0243 H   0  0  0  0  0  0  0  0  0  0  0  0  # atno 496  bound_to 491 

> <Gold.Score>
     Score     S(PLP)   S(hbond)     S(cho)   S(metal)  DE(clash)   DE(tors)     intcor
     35.80     -27.20       3.00       0.00       0.00       0.00       0.20       0.00

> <Gold.PLP.Fitness>
35.8011

> <Gold.PLP.PLP>
-27.1989

> <Gold.PLP.part.hbond>
-2.0000

> <Gold.PLP.part.metal>
0.0000

> <Gold.PLP.part.buried>
-2.6388

> <Gold.PLP.part.nonpolar>
-23.1646

> <Gold.PLP.part.repulsive>
0.0555

> <Gold.PLP.ligand.clash>
0.0000

> <Gold.PLP.ligand.torsion>
0.1993

> <Gold.PLP.Chemscore.Hbond>
3.0000

> <Gold.PLP.Chemscore.CHOScore>
0.0000

> <Gold.PLP.Chemscore.Metal>
0.0000

> <Gold.Chemscore.Hbonds>
donor molecule, donor type, donor heavy atom, donor atom, acceptor molecule, acceptor atom, score
      L1  H     5    21       P1   470  1.00
      L1  H     8    22       P1   582  2.00

> <Gold.PLP.Chemscore.Internal.Correction>
0.0007

