#       Name:                EN300-84592_i002
#       Creating user name   aseyller
#       Creation time:       Fri Apr 21 16:04:30 2023


#       File generated by GOLD software.
#

@<TRIPOS>MOLECULE
EN300-84592_i002|amine_1|mol2|1077|dock17
    24    23     1
SMALL
USER_CHARGES


@<TRIPOS>ATOM
      1 C1          29.2074  37.3754  37.6850 C.3            1 <1>                0.0000
      2 C2          27.8668  37.5855  38.3918 C.3            1 <1>                0.0000
      3 C3          27.0151  38.5698  37.5877 C.3            1 <1>                0.0000
      4 C4          27.1329  36.2474  38.5015 C.3            1 <1>                0.0000
      5 O5          27.9364  35.3225  39.2370 O.3            1 <1>                0.0000
      6 C6          25.8011  36.4542  39.2256 C.3            1 <1>                0.0000
      7 C7          26.0620  36.6997  40.7131 C.3            1 <1>                0.0000
      8 N8          24.9528  36.1480  41.5025 N.4            1 <1>                1.0000
      9 H9          29.7303  38.3286  37.6069 H              1 <1>                0.0000
     10 H10         29.8142  36.6741  38.2579 H              1 <1>                0.0000
     11 H11         29.0329  36.9737  36.6869 H              1 <1>                0.0000
     12 H12         28.0413  37.9871  39.3900 H              1 <1>                0.0000
     13 H13         26.8406  38.1681  36.5895 H              1 <1>                0.0000
     14 H14         26.0600  38.7195  38.0912 H              1 <1>                0.0000
     15 H15         27.5380  39.5231  37.5095 H              1 <1>                0.0000
     16 H16         26.9461  35.8525  37.5029 H              1 <1>                0.0000
     17 H17         25.2860  37.3154  38.8001 H              1 <1>                0.0000
     18 H18         25.1814  35.5654  39.1073 H              1 <1>                0.0000
     19 H19         26.9926  36.2123  41.0039 H              1 <1>                0.0000
     20 H20         26.1405  37.7713  40.8962 H              1 <1>                0.0000
     21 H21         28.5548  35.7406  39.8517 H              1 <1>                0.0000
     22 H22         25.2963  35.4039  42.0910 H              1 <1>                0.0000
     23 H23         24.5551  36.8754  42.0778 H              1 <1>                0.0000
     24 H24         24.2451  35.7861  40.8811 H              1 <1>                0.0000
@<TRIPOS>BOND
    1    1    2 1     
    2    1    9 1     
    3    1   10 1     
    4    1   11 1     
    5    2    3 1     
    6    2    4 1     
    7    2   12 1     
    8    3   13 1     
    9    3   14 1     
   10    3   15 1     
   11    4    5 1     
   12    4    6 1     
   13    4   16 1     
   14    5   21 1     
   15    6    7 1     
   16    6   17 1     
   17    6   18 1     
   18    7    8 1     
   19    7   19 1     
   20    7   20 1     
   21    8   22 1     
   22    8   23 1     
   23    8   24 1     
@<TRIPOS>SUBSTRUCTURE
      1 ****           1
@<TRIPOS>SET
DONOR_HYDROGENS      STATIC     ATOMS    <user>   **** ""
4 21 22 23 24
ATOM$RED        STATIC     ATOMS    COLORGROUP SYSTEM
4 21 22 23 24
@<TRIPOS>COMMENT
> <Gold.Version>
2022.2.0

> <Gold.Id.Protein>
1qkm|1qkm_protein|mol2

> <Gold.Protein.RotatedTorsions>
[  496  491  490  487 ] final -172.18 input  -89.99 | X-H torsion

> <Gold.Protein.ActiveResidues>
 MET295  LEU298  THR299  LEU301  ALA302  GLU305  TRP335  MET336  LEU339  MET340 
 GLY342  LEU343  ARG346  PHE356  ILE373  ILE376  PHE377  LEU380  LYS471  GLY472 
 MET473  HIS475  LEU476  LEU477  ASN478  MET479  VAL484  VAL487 

> <Gold.Protein.RotatedAtoms>
   37.3086   33.5762   40.8095 H   0  0  0  0  0  0  0  0  0  0  0  0  # atno 496  bound_to 491 

> <Gold.Score>
     Score     S(PLP)   S(hbond)     S(cho)   S(metal)  DE(clash)   DE(tors)     intcor
     35.96     -27.54       3.00       0.00       0.00       0.00       0.29       0.00

> <Gold.PLP.Fitness>
35.9557

> <Gold.PLP.PLP>
-27.5406

> <Gold.PLP.part.hbond>
-2.0000

> <Gold.PLP.part.metal>
0.0000

> <Gold.PLP.part.buried>
-3.0852

> <Gold.PLP.part.nonpolar>
-22.7940

> <Gold.PLP.part.repulsive>
0.2751

> <Gold.PLP.ligand.clash>
0.0000

> <Gold.PLP.ligand.torsion>
0.2927

> <Gold.PLP.Chemscore.Hbond>
3.0000

> <Gold.PLP.Chemscore.CHOScore>
0.0000

> <Gold.PLP.Chemscore.Metal>
0.0000

> <Gold.Chemscore.Hbonds>
donor molecule, donor type, donor heavy atom, donor atom, acceptor molecule, acceptor atom, score
      L1  H     8    22       P1   582  2.00
      L1  H     8    24       P1  1131  1.00

> <Gold.PLP.Chemscore.Internal.Correction>
0.0004

