#       Name:                EN300-84592_i002
#       Creating user name   aseyller
#       Creation time:       Fri Apr 21 16:04:23 2023


#       File generated by GOLD software.
#

@<TRIPOS>MOLECULE
EN300-84592_i002|amine_1|mol2|1077|dock5
    24    23     1
SMALL
USER_CHARGES


@<TRIPOS>ATOM
      1 C1          29.8553  36.5001  39.4508 C.3            1 <1>                0.0000
      2 C2          28.4620  35.9386  39.7417 C.3            1 <1>                0.0000
      3 C3          28.3469  35.6060  41.2306 C.3            1 <1>                0.0000
      4 C4          27.4045  36.9795  39.3685 C.3            1 <1>                0.0000
      5 O5          27.4463  37.2169  37.9599 O.3            1 <1>                0.0000
      6 C6          26.0187  36.4606  39.7573 C.3            1 <1>                0.0000
      7 C7          25.6628  36.9584  41.1596 C.3            1 <1>                0.0000
      8 N8          24.7074  36.0312  41.7805 N.4            1 <1>                1.0000
      9 H9          30.6086  35.7585  39.7167 H              1 <1>                0.0000
     10 H10         29.9373  36.7371  38.3901 H              1 <1>                0.0000
     11 H11         30.0124  37.4046  40.0384 H              1 <1>                0.0000
     12 H12         28.3048  35.0341  39.1541 H              1 <1>                0.0000
     13 H13         28.5041  36.5105  41.8182 H              1 <1>                0.0000
     14 H14         27.3543  35.2059  41.4379 H              1 <1>                0.0000
     15 H15         29.1003  34.8644  41.4966 H              1 <1>                0.0000
     16 H16         27.6067  37.9095  39.8999 H              1 <1>                0.0000
     17 H17         25.2804  36.8263  39.0436 H              1 <1>                0.0000
     18 H18         26.0234  35.3707  39.7489 H              1 <1>                0.0000
     19 H19         26.5664  37.0098  41.7670 H              1 <1>                0.0000
     20 H20         25.2146  37.9496  41.0904 H              1 <1>                0.0000
     21 H21         27.0917  36.4914  37.4280 H              1 <1>                0.0000
     22 H22         25.2106  35.2814  42.2305 H              1 <1>                0.0000
     23 H23         24.1564  36.5255  42.4663 H              1 <1>                0.0000
     24 H24         24.0991  35.6502  41.0715 H              1 <1>                0.0000
@<TRIPOS>BOND
    1    1    2 1     
    2    1    9 1     
    3    1   10 1     
    4    1   11 1     
    5    2    3 1     
    6    2    4 1     
    7    2   12 1     
    8    3   13 1     
    9    3   14 1     
   10    3   15 1     
   11    4    5 1     
   12    4    6 1     
   13    4   16 1     
   14    5   21 1     
   15    6    7 1     
   16    6   17 1     
   17    6   18 1     
   18    7    8 1     
   19    7   19 1     
   20    7   20 1     
   21    8   22 1     
   22    8   23 1     
   23    8   24 1     
@<TRIPOS>SUBSTRUCTURE
      1 ****           1
@<TRIPOS>SET
DONOR_HYDROGENS      STATIC     ATOMS    <user>   **** ""
4 21 22 23 24
ATOM$RED        STATIC     ATOMS    COLORGROUP SYSTEM
4 21 22 23 24
@<TRIPOS>COMMENT
> <Gold.Version>
2022.2.0

> <Gold.Id.Protein>
1qkm|1qkm_protein|mol2

> <Gold.Protein.RotatedTorsions>
[  496  491  490  487 ] final  -35.82 input  -89.99 | X-H torsion

> <Gold.Protein.ActiveResidues>
 MET295  LEU298  THR299  LEU301  ALA302  GLU305  TRP335  MET336  LEU339  MET340 
 GLY342  LEU343  ARG346  PHE356  ILE373  ILE376  PHE377  LEU380  LYS471  GLY472 
 MET473  HIS475  LEU476  LEU477  ASN478  MET479  VAL484  VAL487 

> <Gold.Protein.RotatedAtoms>
   36.3414   34.6199   41.8301 H   0  0  0  0  0  0  0  0  0  0  0  0  # atno 496  bound_to 491 

> <Gold.Score>
     Score     S(PLP)   S(hbond)     S(cho)   S(metal)  DE(clash)   DE(tors)     intcor
     38.16     -30.36       3.00       0.00       0.00       0.00       0.60       0.00

> <Gold.PLP.Fitness>
38.1605

> <Gold.PLP.PLP>
-30.3602

> <Gold.PLP.part.hbond>
-2.1582

> <Gold.PLP.part.metal>
0.0000

> <Gold.PLP.part.buried>
-3.8563

> <Gold.PLP.part.nonpolar>
-26.1049

> <Gold.PLP.part.repulsive>
1.7069

> <Gold.PLP.ligand.clash>
0.0000

> <Gold.PLP.ligand.torsion>
0.6002

> <Gold.PLP.Chemscore.Hbond>
3.0000

> <Gold.PLP.Chemscore.CHOScore>
0.0000

> <Gold.PLP.Chemscore.Metal>
0.0000

> <Gold.Chemscore.Hbonds>
donor molecule, donor type, donor heavy atom, donor atom, acceptor molecule, acceptor atom, score
      L1  H     8    22       P1   582  2.00
      L1  H     8    24       P1  1131  1.00

> <Gold.PLP.Chemscore.Internal.Correction>
0.0007

