#       Name:                EN300-84592_i002
#       Creating user name   aseyller
#       Creation time:       Fri Apr 21 16:04:22 2023


#       File generated by GOLD software.
#

@<TRIPOS>MOLECULE
EN300-84592_i002|amine_1|mol2|1077|dock2
    24    23     1
SMALL
USER_CHARGES


@<TRIPOS>ATOM
      1 C1          28.9849  37.4336  37.5173 C.3            1 <1>                0.0000
      2 C2          28.2745  37.0112  38.8049 C.3            1 <1>                0.0000
      3 C3          26.8065  36.7060  38.5007 C.3            1 <1>                0.0000
      4 C4          28.9485  35.7604  39.3725 C.3            1 <1>                0.0000
      5 O5          30.2982  36.0665  39.7283 O.3            1 <1>                0.0000
      6 C6          28.1879  35.2901  40.6139 C.3            1 <1>                0.0000
      7 C7          28.1515  36.4179  41.6473 C.3            1 <1>                0.0000
      8 N8          26.7983  36.5240  42.2089 N.4            1 <1>                1.0000
      9 H9          28.5048  38.3247  37.1129 H              1 <1>                0.0000
     10 H10         30.0308  37.6510  37.7339 H              1 <1>                0.0000
     11 H11         28.9253  36.6259  36.7877 H              1 <1>                0.0000
     12 H12         28.3342  37.8189  39.5344 H              1 <1>                0.0000
     13 H13         26.7469  35.8983  37.7712 H              1 <1>                0.0000
     14 H14         26.3003  36.4051  39.4181 H              1 <1>                0.0000
     15 H15         26.3263  37.5971  38.0964 H              1 <1>                0.0000
     16 H16         28.9410  34.9709  38.6210 H              1 <1>                0.0000
     17 H17         27.1694  35.0197  40.3353 H              1 <1>                0.0000
     18 H18         28.6904  34.4222  41.0408 H              1 <1>                0.0000
     19 H19         28.8605  36.2012  42.4464 H              1 <1>                0.0000
     20 H20         28.4208  37.3589  41.1679 H              1 <1>                0.0000
     21 H21         30.6053  35.6186  40.5285 H              1 <1>                0.0000
     22 H22         26.6479  35.7748  42.8678 H              1 <1>                0.0000
     23 H23         26.6982  37.4109  42.6795 H              1 <1>                0.0000
     24 H24         26.1194  36.4594  41.4653 H              1 <1>                0.0000
@<TRIPOS>BOND
    1    1    2 1     
    2    1    9 1     
    3    1   10 1     
    4    1   11 1     
    5    2    3 1     
    6    2    4 1     
    7    2   12 1     
    8    3   13 1     
    9    3   14 1     
   10    3   15 1     
   11    4    5 1     
   12    4    6 1     
   13    4   16 1     
   14    5   21 1     
   15    6    7 1     
   16    6   17 1     
   17    6   18 1     
   18    7    8 1     
   19    7   19 1     
   20    7   20 1     
   21    8   22 1     
   22    8   23 1     
   23    8   24 1     
@<TRIPOS>SUBSTRUCTURE
      1 ****           1
@<TRIPOS>SET
DONOR_HYDROGENS      STATIC     ATOMS    <user>   **** ""
4 21 22 23 24
ATOM$RED        STATIC     ATOMS    COLORGROUP SYSTEM
4 21 22 23 24
@<TRIPOS>COMMENT
> <Gold.Version>
2022.2.0

> <Gold.Id.Protein>
1qkm|1qkm_protein|mol2

> <Gold.Protein.RotatedTorsions>
[  496  491  490  487 ] final   93.01 input  -89.99 | X-H torsion

> <Gold.Protein.ActiveResidues>
 MET295  LEU298  THR299  LEU301  ALA302  GLU305  TRP335  MET336  LEU339  MET340 
 GLY342  LEU343  ARG346  PHE356  ILE373  ILE376  PHE377  LEU380  LYS471  GLY472 
 MET473  HIS475  LEU476  LEU477  ASN478  MET479  VAL484  VAL487 

> <Gold.Protein.RotatedAtoms>
   36.8480   33.0033   41.9876 H   0  0  0  0  0  0  0  0  0  0  0  0  # atno 496  bound_to 491 

> <Gold.Score>
     Score     S(PLP)   S(hbond)     S(cho)   S(metal)  DE(clash)   DE(tors)     intcor
     35.76     -27.42       3.00       0.00       0.00       0.00       0.33       0.00

> <Gold.PLP.Fitness>
35.7604

> <Gold.PLP.PLP>
-27.4191

> <Gold.PLP.part.hbond>
-2.0000

> <Gold.PLP.part.metal>
0.0000

> <Gold.PLP.part.buried>
-2.6991

> <Gold.PLP.part.nonpolar>
-23.6965

> <Gold.PLP.part.repulsive>
0.0573

> <Gold.PLP.ligand.clash>
0.0000

> <Gold.PLP.ligand.torsion>
0.3306

> <Gold.PLP.Chemscore.Hbond>
3.0000

> <Gold.PLP.Chemscore.CHOScore>
0.0000

> <Gold.PLP.Chemscore.Metal>
0.0000

> <Gold.Chemscore.Hbonds>
donor molecule, donor type, donor heavy atom, donor atom, acceptor molecule, acceptor atom, score
      L1  H     5    21       P1   470  1.00
      L1  H     8    22       P1   582  2.00

> <Gold.PLP.Chemscore.Internal.Correction>
0.0026

