#       Name:                EN300-84592_i002
#       Creating user name   aseyller
#       Creation time:       Fri Apr 21 16:04:30 2023


#       File generated by GOLD software.
#

@<TRIPOS>MOLECULE
EN300-84592_i002|amine_1|mol2|1077|dock16
    24    23     1
SMALL
USER_CHARGES


@<TRIPOS>ATOM
      1 C1          29.7078  37.3113  38.3548 C.3            1 <1>                0.0000
      2 C2          29.0058  36.5508  39.4817 C.3            1 <1>                0.0000
      3 C3          29.5977  36.9733  40.8278 C.3            1 <1>                0.0000
      4 C4          27.5100  36.8719  39.4589 C.3            1 <1>                0.0000
      5 O5          26.9247  36.3308  38.2729 O.3            1 <1>                0.0000
      6 C6          26.8373  36.2549  40.6868 C.3            1 <1>                0.0000
      7 C7          25.4998  36.9532  40.9404 C.3            1 <1>                0.0000
      8 N8          24.6612  36.1076  41.8005 N.4            1 <1>                1.0000
      9 H9          30.7734  37.0826  38.3709 H              1 <1>                0.0000
     10 H10         29.2861  37.0104  37.3957 H              1 <1>                0.0000
     11 H11         29.5639  38.3827  38.4948 H              1 <1>                0.0000
     12 H12         29.1496  35.4795  39.3415 H              1 <1>                0.0000
     13 H13         29.4538  38.0446  40.9678 H              1 <1>                0.0000
     14 H14         29.0975  36.4314  41.6307 H              1 <1>                0.0000
     15 H15         30.6633  36.7445  40.8440 H              1 <1>                0.0000
     16 H16         27.3701  37.9528  39.4726 H              1 <1>                0.0000
     17 H17         26.6653  35.1929  40.5117 H              1 <1>                0.0000
     18 H18         27.4830  36.3798  41.5560 H              1 <1>                0.0000
     19 H19         25.6769  37.9095  41.4327 H              1 <1>                0.0000
     20 H20         24.9921  37.1219  39.9908 H              1 <1>                0.0000
     21 H21         27.5406  35.8238  37.7263 H              1 <1>                0.0000
     22 H22         24.2564  36.6704  42.5336 H              1 <1>                0.0000
     23 H23         23.9247  35.6931  41.2491 H              1 <1>                0.0000
     24 H24         25.2263  35.3785  42.2092 H              1 <1>                0.0000
@<TRIPOS>BOND
    1    1    2 1     
    2    1    9 1     
    3    1   10 1     
    4    1   11 1     
    5    2    3 1     
    6    2    4 1     
    7    2   12 1     
    8    3   13 1     
    9    3   14 1     
   10    3   15 1     
   11    4    5 1     
   12    4    6 1     
   13    4   16 1     
   14    5   21 1     
   15    6    7 1     
   16    6   17 1     
   17    6   18 1     
   18    7    8 1     
   19    7   19 1     
   20    7   20 1     
   21    8   22 1     
   22    8   23 1     
   23    8   24 1     
@<TRIPOS>SUBSTRUCTURE
      1 ****           1
@<TRIPOS>SET
DONOR_HYDROGENS      STATIC     ATOMS    <user>   **** ""
4 21 22 23 24
ATOM$RED        STATIC     ATOMS    COLORGROUP SYSTEM
4 21 22 23 24
@<TRIPOS>COMMENT
> <Gold.Version>
2022.2.0

> <Gold.Id.Protein>
1qkm|1qkm_protein|mol2

> <Gold.Protein.RotatedTorsions>
[  496  491  490  487 ] final -118.85 input  -89.99 | X-H torsion

> <Gold.Protein.ActiveResidues>
 MET295  LEU298  THR299  LEU301  ALA302  GLU305  TRP335  MET336  LEU339  MET340 
 GLY342  LEU343  ARG346  PHE356  ILE373  ILE376  PHE377  LEU380  LYS471  GLY472 
 MET473  HIS475  LEU476  LEU477  ASN478  MET479  VAL484  VAL487 

> <Gold.Protein.RotatedAtoms>
   37.0165   34.3707   40.8077 H   0  0  0  0  0  0  0  0  0  0  0  0  # atno 496  bound_to 491 

> <Gold.Score>
     Score     S(PLP)   S(hbond)     S(cho)   S(metal)  DE(clash)   DE(tors)     intcor
     34.74     -26.41       2.99       0.00       0.00       0.00       0.32       0.00

> <Gold.PLP.Fitness>
34.7444

> <Gold.PLP.PLP>
-26.4060

> <Gold.PLP.part.hbond>
-2.1053

> <Gold.PLP.part.metal>
0.0000

> <Gold.PLP.part.buried>
-2.6195

> <Gold.PLP.part.nonpolar>
-23.8547

> <Gold.PLP.part.repulsive>
2.2234

> <Gold.PLP.ligand.clash>
0.0000

> <Gold.PLP.ligand.torsion>
0.3190

> <Gold.PLP.Chemscore.Hbond>
2.9920

> <Gold.PLP.Chemscore.CHOScore>
0.0000

> <Gold.PLP.Chemscore.Metal>
0.0000

> <Gold.Chemscore.Hbonds>
donor molecule, donor type, donor heavy atom, donor atom, acceptor molecule, acceptor atom, score
      L1  H     8    23       P1  1131  0.99
      L1  H     8    24       P1   582  2.00

> <Gold.PLP.Chemscore.Internal.Correction>
0.0004

