#       Name:                EN300-84592_i002
#       Creating user name   aseyller
#       Creation time:       Fri Apr 21 16:04:24 2023


#       File generated by GOLD software.
#

@<TRIPOS>MOLECULE
EN300-84592_i002|amine_1|mol2|1077|dock7
    24    23     1
SMALL
USER_CHARGES


@<TRIPOS>ATOM
      1 C1          26.3755  36.0883  40.8996 C.3            1 <1>                0.0000
      2 C2          27.4799  35.9770  39.8465 C.3            1 <1>                0.0000
      3 C3          27.0050  36.6160  38.5401 C.3            1 <1>                0.0000
      4 C4          28.7327  36.7017  40.3429 C.3            1 <1>                0.0000
      5 O5          29.2255  36.0518  41.5162 O.3            1 <1>                0.0000
      6 C6          29.8060  36.6693  39.2530 C.3            1 <1>                0.0000
      7 C7          29.9783  35.2348  38.7495 C.3            1 <1>                0.0000
      8 N8          31.2830  34.7171  39.1828 N.4            1 <1>                1.0000
      9 H9          25.4830  35.5719  40.5460 H              1 <1>                0.0000
     10 H10         26.7138  35.6331  41.8304 H              1 <1>                0.0000
     11 H11         26.1429  37.1391  41.0725 H              1 <1>                0.0000
     12 H12         27.7125  34.9262  39.6737 H              1 <1>                0.0000
     13 H13         26.7725  37.6667  38.7130 H              1 <1>                0.0000
     14 H14         27.7919  36.5367  37.7898 H              1 <1>                0.0000
     15 H15         26.1125  36.0996  38.1864 H              1 <1>                0.0000
     16 H16         28.4845  37.7368  40.5779 H              1 <1>                0.0000
     17 H17         29.5031  37.3109  38.4255 H              1 <1>                0.0000
     18 H18         30.7507  37.0265  39.6627 H              1 <1>                0.0000
     19 H19         29.1851  34.6087  39.1581 H              1 <1>                0.0000
     20 H20         29.9262  35.2231  37.6608 H              1 <1>                0.0000
     21 H21         30.1839  35.9231  41.5215 H              1 <1>                0.0000
     22 H22         32.0180  35.2057  38.6938 H              1 <1>                0.0000
     23 H23         31.3879  34.8591  40.1763 H              1 <1>                0.0000
     24 H24         31.3391  33.7311  38.9763 H              1 <1>                0.0000
@<TRIPOS>BOND
    1    1    2 1     
    2    1    9 1     
    3    1   10 1     
    4    1   11 1     
    5    2    3 1     
    6    2    4 1     
    7    2   12 1     
    8    3   13 1     
    9    3   14 1     
   10    3   15 1     
   11    4    5 1     
   12    4    6 1     
   13    4   16 1     
   14    5   21 1     
   15    6    7 1     
   16    6   17 1     
   17    6   18 1     
   18    7    8 1     
   19    7   19 1     
   20    7   20 1     
   21    8   22 1     
   22    8   23 1     
   23    8   24 1     
@<TRIPOS>SUBSTRUCTURE
      1 ****           1
@<TRIPOS>SET
DONOR_HYDROGENS      STATIC     ATOMS    <user>   **** ""
4 21 22 23 24
ATOM$RED        STATIC     ATOMS    COLORGROUP SYSTEM
4 21 22 23 24
@<TRIPOS>COMMENT
> <Gold.Version>
2022.2.0

> <Gold.Id.Protein>
1qkm|1qkm_protein|mol2

> <Gold.Protein.RotatedTorsions>
[  496  491  490  487 ] final   15.17 input  -89.99 | X-H torsion

> <Gold.Protein.ActiveResidues>
 MET295  LEU298  THR299  LEU301  ALA302  GLU305  TRP335  MET336  LEU339  MET340 
 GLY342  LEU343  ARG346  PHE356  ILE373  ILE376  PHE377  LEU380  LYS471  GLY472 
 MET473  HIS475  LEU476  LEU477  ASN478  MET479  VAL484  VAL487 

> <Gold.Protein.RotatedAtoms>
   36.2864   33.9871   42.3358 H   0  0  0  0  0  0  0  0  0  0  0  0  # atno 496  bound_to 491 

> <Gold.Score>
     Score     S(PLP)   S(hbond)     S(cho)   S(metal)  DE(clash)   DE(tors)     intcor
     33.95     -28.77       2.00       0.00       0.00       0.00       0.41       0.00

> <Gold.PLP.Fitness>
33.9453

> <Gold.PLP.PLP>
-28.7728

> <Gold.PLP.part.hbond>
-2.0000

> <Gold.PLP.part.metal>
0.0000

> <Gold.PLP.part.buried>
-3.3968

> <Gold.PLP.part.nonpolar>
-23.8130

> <Gold.PLP.part.repulsive>
0.0787

> <Gold.PLP.ligand.clash>
0.0000

> <Gold.PLP.ligand.torsion>
0.4141

> <Gold.PLP.Chemscore.Hbond>
2.0000

> <Gold.PLP.Chemscore.CHOScore>
0.0000

> <Gold.PLP.Chemscore.Metal>
0.0000

> <Gold.Chemscore.Hbonds>
donor molecule, donor type, donor heavy atom, donor atom, acceptor molecule, acceptor atom, score
      L1  H     5    21       P1   470  1.00
      L1  H     8    23       P1   470  1.00

> <Gold.PLP.Chemscore.Internal.Correction>
0.0007

