#       Name:                EN300-84592_i002
#       Creating user name   aseyller
#       Creation time:       Fri Apr 21 16:04:31 2023


#       File generated by GOLD software.
#

@<TRIPOS>MOLECULE
EN300-84592_i002|amine_1|mol2|1077|dock18
    24    23     1
SMALL
USER_CHARGES


@<TRIPOS>ATOM
      1 C1          29.8948  38.1512  38.2311 C.3            1 <1>                0.0000
      2 C2          30.0034  36.6343  38.0631 C.3            1 <1>                0.0000
      3 C3          31.4774  36.2363  37.9648 C.3            1 <1>                0.0000
      4 C4          29.3672  35.9407  39.2695 C.3            1 <1>                0.0000
      5 O5          29.9858  36.4096  40.4693 O.3            1 <1>                0.0000
      6 C6          27.8710  36.2579  39.3095 C.3            1 <1>                0.0000
      7 C7          27.2211  35.5051  40.4723 C.3            1 <1>                0.0000
      8 N8          27.7436  36.0228  41.7438 N.4            1 <1>                1.0000
      9 H9          30.3480  38.6453  37.3717 H              1 <1>                0.0000
     10 H10         28.8447  38.4348  38.3012 H              1 <1>                0.0000
     11 H11         30.4144  38.4541  39.1402 H              1 <1>                0.0000
     12 H12         29.4837  36.3314  37.1541 H              1 <1>                0.0000
     13 H13         31.9969  36.5393  38.8738 H              1 <1>                0.0000
     14 H14         31.5547  35.1556  37.8450 H              1 <1>                0.0000
     15 H15         31.9306  36.7304  37.1053 H              1 <1>                0.0000
     16 H16         29.5082  34.8632  39.1851 H              1 <1>                0.0000
     17 H17         27.7304  37.3300  39.4469 H              1 <1>                0.0000
     18 H18         27.4087  35.9480  38.3724 H              1 <1>                0.0000
     19 H19         26.1409  35.6473  40.4385 H              1 <1>                0.0000
     20 H20         27.4504  34.4427  40.3908 H              1 <1>                0.0000
     21 H21         30.7488  35.8854  40.7492 H              1 <1>                0.0000
     22 H22         27.2106  35.6367  42.5086 H              1 <1>                0.0000
     23 H23         28.7125  35.7583  41.8418 H              1 <1>                0.0000
     24 H24         27.6670  37.0288  41.7544 H              1 <1>                0.0000
@<TRIPOS>BOND
    1    1    2 1     
    2    1    9 1     
    3    1   10 1     
    4    1   11 1     
    5    2    3 1     
    6    2    4 1     
    7    2   12 1     
    8    3   13 1     
    9    3   14 1     
   10    3   15 1     
   11    4    5 1     
   12    4    6 1     
   13    4   16 1     
   14    5   21 1     
   15    6    7 1     
   16    6   17 1     
   17    6   18 1     
   18    7    8 1     
   19    7   19 1     
   20    7   20 1     
   21    8   22 1     
   22    8   23 1     
   23    8   24 1     
@<TRIPOS>SUBSTRUCTURE
      1 ****           1
@<TRIPOS>SET
DONOR_HYDROGENS      STATIC     ATOMS    <user>   **** ""
4 21 22 23 24
ATOM$RED        STATIC     ATOMS    COLORGROUP SYSTEM
4 21 22 23 24
@<TRIPOS>COMMENT
> <Gold.Version>
2022.2.0

> <Gold.Id.Protein>
1qkm|1qkm_protein|mol2

> <Gold.Protein.RotatedTorsions>
[  496  491  490  487 ] final -128.13 input  -89.99 | X-H torsion

> <Gold.Protein.ActiveResidues>
 MET295  LEU298  THR299  LEU301  ALA302  GLU305  TRP335  MET336  LEU339  MET340 
 GLY342  LEU343  ARG346  PHE356  ILE373  ILE376  PHE377  LEU380  LYS471  GLY472 
 MET473  HIS475  LEU476  LEU477  ASN478  MET479  VAL484  VAL487 

> <Gold.Protein.RotatedAtoms>
   37.0907   34.2472   40.7576 H   0  0  0  0  0  0  0  0  0  0  0  0  # atno 496  bound_to 491 

> <Gold.Score>
     Score     S(PLP)   S(hbond)     S(cho)   S(metal)  DE(clash)   DE(tors)     intcor
     32.82     -23.89       3.00       0.00       0.00       0.00       0.03       0.00

> <Gold.PLP.Fitness>
32.8250

> <Gold.PLP.PLP>
-23.8854

> <Gold.PLP.part.hbond>
-2.0000

> <Gold.PLP.part.metal>
0.0000

> <Gold.PLP.part.buried>
-2.0555

> <Gold.PLP.part.nonpolar>
-20.4613

> <Gold.PLP.part.repulsive>
0.0442

> <Gold.PLP.ligand.clash>
0.0000

> <Gold.PLP.ligand.torsion>
0.0304

> <Gold.PLP.Chemscore.Hbond>
3.0000

> <Gold.PLP.Chemscore.CHOScore>
0.0000

> <Gold.PLP.Chemscore.Metal>
0.0000

> <Gold.Chemscore.Hbonds>
donor molecule, donor type, donor heavy atom, donor atom, acceptor molecule, acceptor atom, score
      L1  H     5    21       P1   470  1.00
      L1  H     8    22       P1   582  2.00

> <Gold.PLP.Chemscore.Internal.Correction>
0.0004

