#       Name:                EN300-84592_i002
#       Creating user name   aseyller
#       Creation time:       Fri Apr 21 16:04:29 2023


#       File generated by GOLD software.
#

@<TRIPOS>MOLECULE
EN300-84592_i002|amine_1|mol2|1077|dock14
    24    23     1
SMALL
USER_CHARGES


@<TRIPOS>ATOM
      1 C1          30.8881  37.1365  38.0683 C.3            1 <1>                0.0000
      2 C2          29.5052  37.5448  38.5799 C.3            1 <1>                0.0000
      3 C3          28.5381  37.6585  37.3999 C.3            1 <1>                0.0000
      4 C4          28.9917  36.4883  39.5603 C.3            1 <1>                0.0000
      5 O5          29.6871  36.6131  40.8024 O.3            1 <1>                0.0000
      6 C6          27.4932  36.6930  39.7919 C.3            1 <1>                0.0000
      7 C7          27.0157  35.7541  40.9016 C.3            1 <1>                0.0000
      8 N8          25.6858  36.1758  41.3613 N.4            1 <1>                1.0000
      9 H9          31.2540  37.8892  37.3700 H              1 <1>                0.0000
     10 H10         31.5772  37.0555  38.9090 H              1 <1>                0.0000
     11 H11         30.8185  36.1739  37.5616 H              1 <1>                0.0000
     12 H12         29.5749  38.5074  39.0867 H              1 <1>                0.0000
     13 H13         28.4684  36.6959  36.8932 H              1 <1>                0.0000
     14 H14         27.5527  37.9494  37.7643 H              1 <1>                0.0000
     15 H15         28.9039  38.4112  36.7014 H              1 <1>                0.0000
     16 H16         29.1630  35.4946  39.1462 H              1 <1>                0.0000
     17 H17         27.3088  37.7263  40.0858 H              1 <1>                0.0000
     18 H18         26.9503  36.4745  38.8724 H              1 <1>                0.0000
     19 H19         26.9612  34.7356  40.5172 H              1 <1>                0.0000
     20 H20         27.7169  35.7908  41.7353 H              1 <1>                0.0000
     21 H21         30.3705  35.9428  40.9397 H              1 <1>                0.0000
     22 H22         25.6787  37.1753  41.4988 H              1 <1>                0.0000
     23 H23         24.9959  35.9268  40.6682 H              1 <1>                0.0000
     24 H24         25.4691  35.7148  42.2322 H              1 <1>                0.0000
@<TRIPOS>BOND
    1    1    2 1     
    2    1    9 1     
    3    1   10 1     
    4    1   11 1     
    5    2    3 1     
    6    2    4 1     
    7    2   12 1     
    8    3   13 1     
    9    3   14 1     
   10    3   15 1     
   11    4    5 1     
   12    4    6 1     
   13    4   16 1     
   14    5   21 1     
   15    6    7 1     
   16    6   17 1     
   17    6   18 1     
   18    7    8 1     
   19    7   19 1     
   20    7   20 1     
   21    8   22 1     
   22    8   23 1     
   23    8   24 1     
@<TRIPOS>SUBSTRUCTURE
      1 ****           1
@<TRIPOS>SET
DONOR_HYDROGENS      STATIC     ATOMS    <user>   **** ""
4 21 22 23 24
ATOM$RED        STATIC     ATOMS    COLORGROUP SYSTEM
4 21 22 23 24
@<TRIPOS>COMMENT
> <Gold.Version>
2022.2.0

> <Gold.Id.Protein>
1qkm|1qkm_protein|mol2

> <Gold.Protein.RotatedTorsions>
[  496  491  490  487 ] final  154.65 input  -89.99 | X-H torsion

> <Gold.Protein.ActiveResidues>
 MET295  LEU298  THR299  LEU301  ALA302  GLU305  TRP335  MET336  LEU339  MET340 
 GLY342  LEU343  ARG346  PHE356  ILE373  ILE376  PHE377  LEU380  LYS471  GLY472 
 MET473  HIS475  LEU476  LEU477  ASN478  MET479  VAL484  VAL487 

> <Gold.Protein.RotatedAtoms>
   37.2804   33.1486   41.1356 H   0  0  0  0  0  0  0  0  0  0  0  0  # atno 496  bound_to 491 

> <Gold.Score>
     Score     S(PLP)   S(hbond)     S(cho)   S(metal)  DE(clash)   DE(tors)     intcor
     34.14     -25.71       3.00       0.00       0.00       0.00       0.28       0.00

> <Gold.PLP.Fitness>
34.1392

> <Gold.PLP.PLP>
-25.7075

> <Gold.PLP.part.hbond>
-2.0000

> <Gold.PLP.part.metal>
0.0000

> <Gold.PLP.part.buried>
-2.7330

> <Gold.PLP.part.nonpolar>
-20.7529

> <Gold.PLP.part.repulsive>
0.0835

> <Gold.PLP.ligand.clash>
0.0000

> <Gold.PLP.ligand.torsion>
0.2843

> <Gold.PLP.Chemscore.Hbond>
3.0000

> <Gold.PLP.Chemscore.CHOScore>
0.0000

> <Gold.PLP.Chemscore.Metal>
0.0000

> <Gold.Chemscore.Hbonds>
donor molecule, donor type, donor heavy atom, donor atom, acceptor molecule, acceptor atom, score
      L1  H     5    21       P1   470  1.00
      L1  H     8    24       P1   582  2.00

> <Gold.PLP.Chemscore.Internal.Correction>
0.0004

