#       Name:                EN300-84592_i002
#       Creating user name   aseyller
#       Creation time:       Fri Apr 21 16:04:25 2023


#       File generated by GOLD software.
#

@<TRIPOS>MOLECULE
EN300-84592_i002|amine_1|mol2|1077|dock9
    24    23     1
SMALL
USER_CHARGES


@<TRIPOS>ATOM
      1 C1          25.7499  37.0575  41.5014 C.3            1 <1>                0.0000
      2 C2          26.4490  36.1941  40.4493 C.3            1 <1>                0.0000
      3 C3          26.1806  36.7695  39.0573 C.3            1 <1>                0.0000
      4 C4          27.9556  36.1856  40.7158 C.3            1 <1>                0.0000
      5 O5          28.2181  35.5043  41.9442 O.3            1 <1>                0.0000
      6 C6          28.6719  35.4667  39.5708 C.3            1 <1>                0.0000
      7 C7          30.0749  36.0526  39.3992 C.3            1 <1>                0.0000
      8 N8          31.0607  34.9637  39.3747 N.4            1 <1>                1.0000
      9 H9          24.6766  37.0636  41.3116 H              1 <1>                0.0000
     10 H10         25.9411  36.6476  42.4932 H              1 <1>                0.0000
     11 H11         26.1340  38.0762  41.4491 H              1 <1>                0.0000
     12 H12         26.0649  35.1754  40.5017 H              1 <1>                0.0000
     13 H13         26.5648  37.7883  39.0050 H              1 <1>                0.0000
     14 H14         26.6787  36.1544  38.3077 H              1 <1>                0.0000
     15 H15         25.1073  36.7756  38.8674 H              1 <1>                0.0000
     16 H16         28.3183  37.2112  40.7845 H              1 <1>                0.0000
     17 H17         28.7476  34.4038  39.8000 H              1 <1>                0.0000
     18 H18         28.1071  35.6002  38.6483 H              1 <1>                0.0000
     19 H19         30.1243  36.6086  38.4630 H              1 <1>                0.0000
     20 H20         30.2934  36.7219  40.2313 H              1 <1>                0.0000
     21 H21         27.4254  35.3067  42.4617 H              1 <1>                0.0000
     22 H22         31.8095  35.2022  38.7420 H              1 <1>                0.0000
     23 H23         31.4344  34.8276  40.3020 H              1 <1>                0.0000
     24 H24         30.6151  34.1136  39.0636 H              1 <1>                0.0000
@<TRIPOS>BOND
    1    1    2 1     
    2    1    9 1     
    3    1   10 1     
    4    1   11 1     
    5    2    3 1     
    6    2    4 1     
    7    2   12 1     
    8    3   13 1     
    9    3   14 1     
   10    3   15 1     
   11    4    5 1     
   12    4    6 1     
   13    4   16 1     
   14    5   21 1     
   15    6    7 1     
   16    6   17 1     
   17    6   18 1     
   18    7    8 1     
   19    7   19 1     
   20    7   20 1     
   21    8   22 1     
   22    8   23 1     
   23    8   24 1     
@<TRIPOS>SUBSTRUCTURE
      1 ****           1
@<TRIPOS>SET
DONOR_HYDROGENS      STATIC     ATOMS    <user>   **** ""
4 21 22 23 24
ATOM$RED        STATIC     ATOMS    COLORGROUP SYSTEM
4 21 22 23 24
@<TRIPOS>COMMENT
> <Gold.Version>
2022.2.0

> <Gold.Id.Protein>
1qkm|1qkm_protein|mol2

> <Gold.Protein.RotatedTorsions>
[  496  491  490  487 ] final  -43.78 input  -89.99 | X-H torsion

> <Gold.Protein.ActiveResidues>
 MET295  LEU298  THR299  LEU301  ALA302  GLU305  TRP335  MET336  LEU339  MET340 
 GLY342  LEU343  ARG346  PHE356  ILE373  ILE376  PHE377  LEU380  LYS471  GLY472 
 MET473  HIS475  LEU476  LEU477  ASN478  MET479  VAL484  VAL487 

> <Gold.Protein.RotatedAtoms>
   36.3850   34.6734   41.7189 H   0  0  0  0  0  0  0  0  0  0  0  0  # atno 496  bound_to 491 

> <Gold.Score>
     Score     S(PLP)   S(hbond)     S(cho)   S(metal)  DE(clash)   DE(tors)     intcor
     36.19     -31.74       2.00       0.00       0.00       0.00       0.78       0.00

> <Gold.PLP.Fitness>
36.1880

> <Gold.PLP.PLP>
-31.7403

> <Gold.PLP.part.hbond>
-2.0000

> <Gold.PLP.part.metal>
0.0000

> <Gold.PLP.part.buried>
-3.0066

> <Gold.PLP.part.nonpolar>
-27.0124

> <Gold.PLP.part.repulsive>
0.0845

> <Gold.PLP.ligand.clash>
0.0000

> <Gold.PLP.ligand.torsion>
0.7765

> <Gold.PLP.Chemscore.Hbond>
2.0000

> <Gold.PLP.Chemscore.CHOScore>
0.0000

> <Gold.PLP.Chemscore.Metal>
0.0000

> <Gold.Chemscore.Hbonds>
donor molecule, donor type, donor heavy atom, donor atom, acceptor molecule, acceptor atom, score
      L1  H     5    21       P1   582  1.00
      L1  H     8    23       P1   470  1.00

> <Gold.PLP.Chemscore.Internal.Correction>
0.0007

