#       Name:                EN300-84592_i002
#       Creating user name   aseyller
#       Creation time:       Fri Apr 21 16:04:21 2023


#       File generated by GOLD software.
#

@<TRIPOS>MOLECULE
EN300-84592_i002|amine_1|mol2|1077|dock1
    24    23     1
SMALL
USER_CHARGES


@<TRIPOS>ATOM
      1 C1          31.0940  35.8010  38.7990 C.3            1 <1>                0.0000
      2 C2          29.8791  36.7121  38.9857 C.3            1 <1>                0.0000
      3 C3          29.3169  37.0995  37.6165 C.3            1 <1>                0.0000
      4 C4          28.8056  35.9729  39.7872 C.3            1 <1>                0.0000
      5 O5          29.2359  35.8317  41.1425 O.3            1 <1>                0.0000
      6 C6          27.5001  36.7696  39.7469 C.3            1 <1>                0.0000
      7 C7          26.4696  36.1067  40.6633 C.3            1 <1>                0.0000
      8 N8          26.9250  36.1954  42.0571 N.4            1 <1>                1.0000
      9 H9          31.8588  36.3276  38.2281 H              1 <1>                0.0000
     10 H10         31.4945  35.5250  39.7744 H              1 <1>                0.0000
     11 H11         30.7942  34.9014  38.2615 H              1 <1>                0.0000
     12 H12         30.1788  37.6117  39.5233 H              1 <1>                0.0000
     13 H13         29.0172  36.1999  37.0790 H              1 <1>                0.0000
     14 H14         28.4514  37.7487  37.7496 H              1 <1>                0.0000
     15 H15         30.0817  37.6262  37.0456 H              1 <1>                0.0000
     16 H16         28.6429  34.9864  39.3530 H              1 <1>                0.0000
     17 H17         27.6857  37.7887  40.0862 H              1 <1>                0.0000
     18 H18         27.1185  36.7904  38.7262 H              1 <1>                0.0000
     19 H19         25.5115  36.6164  40.5610 H              1 <1>                0.0000
     20 H20         26.3557  35.0593  40.3842 H              1 <1>                0.0000
     21 H21         30.1958  35.7788  41.2470 H              1 <1>                0.0000
     22 H22         27.9133  35.9968  42.1013 H              1 <1>                0.0000
     23 H23         26.7527  37.1254  42.4086 H              1 <1>                0.0000
     24 H24         26.4218  35.5250  42.6187 H              1 <1>                0.0000
@<TRIPOS>BOND
    1    1    2 1     
    2    1    9 1     
    3    1   10 1     
    4    1   11 1     
    5    2    3 1     
    6    2    4 1     
    7    2   12 1     
    8    3   13 1     
    9    3   14 1     
   10    3   15 1     
   11    4    5 1     
   12    4    6 1     
   13    4   16 1     
   14    5   21 1     
   15    6    7 1     
   16    6   17 1     
   17    6   18 1     
   18    7    8 1     
   19    7   19 1     
   20    7   20 1     
   21    8   22 1     
   22    8   23 1     
   23    8   24 1     
@<TRIPOS>SUBSTRUCTURE
      1 ****           1
@<TRIPOS>SET
DONOR_HYDROGENS      STATIC     ATOMS    <user>   **** ""
4 21 22 23 24
ATOM$RED        STATIC     ATOMS    COLORGROUP SYSTEM
4 21 22 23 24
@<TRIPOS>COMMENT
> <Gold.Version>
2022.2.0

> <Gold.Id.Protein>
1qkm|1qkm_protein|mol2

> <Gold.Protein.RotatedTorsions>
[  496  491  490  487 ] final   89.42 input  -89.99 | X-H torsion

> <Gold.Protein.ActiveResidues>
 MET295  LEU298  THR299  LEU301  ALA302  GLU305  TRP335  MET336  LEU339  MET340 
 GLY342  LEU343  ARG346  PHE356  ILE373  ILE376  PHE377  LEU380  LYS471  GLY472 
 MET473  HIS475  LEU476  LEU477  ASN478  MET479  VAL484  VAL487 

> <Gold.Protein.RotatedAtoms>
   36.8149   33.0258   42.0311 H   0  0  0  0  0  0  0  0  0  0  0  0  # atno 496  bound_to 491 

> <Gold.Score>
     Score     S(PLP)   S(hbond)     S(cho)   S(metal)  DE(clash)   DE(tors)     intcor
     35.64     -26.91       3.00       0.00       0.00       0.00       0.14       0.00

> <Gold.PLP.Fitness>
35.6354

> <Gold.PLP.PLP>
-26.9143

> <Gold.PLP.part.hbond>
-2.0000

> <Gold.PLP.part.metal>
0.0000

> <Gold.PLP.part.buried>
-3.5844

> <Gold.PLP.part.nonpolar>
-21.7357

> <Gold.PLP.part.repulsive>
0.0560

> <Gold.PLP.ligand.clash>
0.0000

> <Gold.PLP.ligand.torsion>
0.1408

> <Gold.PLP.Chemscore.Hbond>
3.0000

> <Gold.PLP.Chemscore.CHOScore>
0.0000

> <Gold.PLP.Chemscore.Metal>
0.0000

> <Gold.Chemscore.Hbonds>
donor molecule, donor type, donor heavy atom, donor atom, acceptor molecule, acceptor atom, score
      L1  H     5    21       P1   470  1.00
      L1  H     8    24       P1   582  2.00

> <Gold.PLP.Chemscore.Internal.Correction>
0.0026

