#       Name:                EN300-94340_i001
#       Creating user name   aseyller
#       Creation time:       Fri Apr 21 18:12:41 2023


#       File generated by GOLD software.
#

@<TRIPOS>MOLECULE
EN300-94340_i001|benzaldehydes|mol2|464|dock16
    24    26     1
SMALL
USER_CHARGES


@<TRIPOS>ATOM
      1 O1          32.2458  35.0686  37.9701 O.2            1 <1>                0.0000
      2 C2          31.2553  35.4451  38.5666 C.2            1 <1>                0.0000
      3 C3          30.5168  36.5319  38.0820 C.2            1 <1>                0.0000
      4 C4          29.3331  37.0499  38.6190 C.2            1 <1>                0.0000
      5 N5          28.9572  38.0743  37.8667 N.2            1 <1>                0.0000
      6 C6          29.8272  38.2523  36.8723 C.2            1 <1>                0.0000
      7 C7          29.8696  39.1911  35.8264 C.2            1 <1>                0.0000
      8 C8          30.8947  39.1472  34.9283 C.2            1 <1>                0.0000
      9 C9          31.8890  38.1689  35.0603 C.2            1 <1>                0.0000
     10 C10         31.8298  37.2738  36.0736 C.2            1 <1>                0.0000
     11 N11         30.8150  37.3155  36.9762 N.pl3          1 <1>                0.0000
     12 N12         28.6660  36.5721  39.7473 N.pl3          1 <1>                0.0000
     13 C13         27.3270  36.6997  40.0187 C.2            1 <1>                0.0000
     14 C14         27.1105  36.0984  41.2033 C.2            1 <1>                0.0000
     15 N15         28.2802  35.6148  41.6485 N.2            1 <1>                0.0000
     16 C16         29.2184  35.8864  40.7835 C.2            1 <1>                0.0000
     17 H17         30.9425  34.9386  39.4678 H              1 <1>                0.0000
     18 H18         29.0971  39.9403  35.7350 H              1 <1>                0.0000
     19 H19         30.9397  39.8619  34.1199 H              1 <1>                0.0000
     20 H20         32.7034  38.1288  34.3521 H              1 <1>                0.0000
     21 H21         32.5996  36.5224  36.1689 H              1 <1>                0.0000
     22 H22         26.5887  37.1890  39.4008 H              1 <1>                0.0000
     23 H23         26.1594  36.0193  41.7086 H              1 <1>                0.0000
     24 H24         30.2602  35.6181  40.8781 H              1 <1>                0.0000
@<TRIPOS>BOND
    1    1    2 2     
    2    2    3 1     
    3    2   17 1     
    4    3    4 2     
    5    3   11 1     
    6    4    5 1     
    7    4   12 1     
    8    5    6 2     
    9    6    7 1     
   10    6   11 1     
   11    7    8 2     
   12    7   18 1     
   13    8    9 1     
   14    8   19 1     
   15    9   10 2     
   16    9   20 1     
   17   10   11 1     
   18   10   21 1     
   19   12   13 1     
   20   12   16 1     
   21   13   14 2     
   22   13   22 1     
   23   14   15 1     
   24   14   23 1     
   25   15   16 2     
   26   16   24 1     
@<TRIPOS>SUBSTRUCTURE
      1 ****           1
@<TRIPOS>COMMENT
> <Gold.Version>
2022.2.0

> <Gold.Id.Protein>
1qkm|1qkm_protein|mol2

> <Gold.Protein.RotatedTorsions>
[  496  491  490  487 ] final   11.87 input  -89.99 | X-H torsion

> <Gold.Protein.ActiveResidues>
 MET295  LEU298  THR299  LEU301  ALA302  GLU305  TRP335  MET336  LEU339  MET340 
 GLY342  LEU343  ARG346  PHE356  ILE373  ILE376  PHE377  LEU380  LYS471  GLY472 
 MET473  HIS475  LEU476  LEU477  ASN478  MET479  VAL484  VAL487 

> <Gold.Protein.RotatedAtoms>
   36.2775   34.0379   42.3186 H   0  0  0  0  0  0  0  0  0  0  0  0  # atno 496  bound_to 491 

> <Gold.Score>
     Score     S(PLP)   S(hbond)     S(cho)   S(metal)  DE(clash)   DE(tors)     intcor
     51.91     -46.98       0.00       1.73       0.00       0.00       0.28       0.29

> <Gold.PLP.Fitness>
51.9068

> <Gold.PLP.PLP>
-46.9797

> <Gold.PLP.part.hbond>
0.0000

> <Gold.PLP.part.metal>
0.0000

> <Gold.PLP.part.buried>
-1.5345

> <Gold.PLP.part.nonpolar>
-46.1393

> <Gold.PLP.part.repulsive>
0.2180

> <Gold.PLP.ligand.clash>
0.0000

> <Gold.PLP.ligand.torsion>
0.2785

> <Gold.PLP.Chemscore.Hbond>
0.0000

> <Gold.PLP.Chemscore.CHOScore>
1.7316

> <Gold.PLP.Chemscore.Metal>
0.0000

> <Gold.Chemscore.Hbonds>
donor molecule, donor type, donor heavy atom, donor atom, acceptor molecule, acceptor atom, score
      L1  C    14    23       P1   582  0.73
      L1  C    16    24       P1   470  1.00

> <Gold.PLP.Chemscore.Internal.Correction>
0.2892

