#       Name:                EN300-94340_i001
#       Creating user name   aseyller
#       Creation time:       Fri Apr 21 18:12:40 2023


#       File generated by GOLD software.
#

@<TRIPOS>MOLECULE
EN300-94340_i001|benzaldehydes|mol2|464|dock14
    24    26     1
SMALL
USER_CHARGES


@<TRIPOS>ATOM
      1 O1          28.5663  38.8308  36.9055 O.2            1 <1>                0.0000
      2 C2          29.1144  37.7486  36.9897 C.2            1 <1>                0.0000
      3 C3          28.8855  36.9325  38.1046 C.2            1 <1>                0.0000
      4 C4          29.7620  35.9867  38.6477 C.2            1 <1>                0.0000
      5 N5          29.1670  35.4318  39.6940 N.2            1 <1>                0.0000
      6 C6          27.9553  35.9617  39.8626 C.2            1 <1>                0.0000
      7 C7          26.9523  35.7125  40.8161 C.2            1 <1>                0.0000
      8 C8          25.7835  36.4122  40.7569 C.2            1 <1>                0.0000
      9 C9          25.5990  37.3675  39.7487 C.2            1 <1>                0.0000
     10 C10         26.5764  37.5922  38.8400 C.2            1 <1>                0.0000
     11 N11         27.7463  36.9035  38.8965 N.pl3          1 <1>                0.0000
     12 N12         31.0373  35.6813  38.1716 N.pl3          1 <1>                0.0000
     13 C13         31.9206  36.5535  37.5868 C.2            1 <1>                0.0000
     14 C14         33.0229  35.8445  37.2799 C.2            1 <1>                0.0000
     15 N15         32.8251  34.5742  37.6639 N.2            1 <1>                0.0000
     16 C16         31.6429  34.4642  38.2045 C.2            1 <1>                0.0000
     17 H17         29.7743  37.4148  36.2025 H              1 <1>                0.0000
     18 H18         27.1062  34.9734  41.5884 H              1 <1>                0.0000
     19 H19         25.0044  36.2309  41.4826 H              1 <1>                0.0000
     20 H20         24.6755  37.9249  39.6964 H              1 <1>                0.0000
     21 H21         26.4270  38.3298  38.0654 H              1 <1>                0.0000
     22 H22         31.7618  37.6065  37.4069 H              1 <1>                0.0000
     23 H23         33.9127  36.2313  36.8059 H              1 <1>                0.0000
     24 H24         31.2141  33.5572  38.6043 H              1 <1>                0.0000
@<TRIPOS>BOND
    1    1    2 2     
    2    2    3 1     
    3    2   17 1     
    4    3    4 2     
    5    3   11 1     
    6    4    5 1     
    7    4   12 1     
    8    5    6 2     
    9    6    7 1     
   10    6   11 1     
   11    7    8 2     
   12    7   18 1     
   13    8    9 1     
   14    8   19 1     
   15    9   10 2     
   16    9   20 1     
   17   10   11 1     
   18   10   21 1     
   19   12   13 1     
   20   12   16 1     
   21   13   14 2     
   22   13   22 1     
   23   14   15 1     
   24   14   23 1     
   25   15   16 2     
   26   16   24 1     
@<TRIPOS>SUBSTRUCTURE
      1 ****           1
@<TRIPOS>COMMENT
> <Gold.Version>
2022.2.0

> <Gold.Id.Protein>
1qkm|1qkm_protein|mol2

> <Gold.Protein.RotatedTorsions>
[  496  491  490  487 ] final  -70.35 input  -89.99 | X-H torsion

> <Gold.Protein.ActiveResidues>
 MET295  LEU298  THR299  LEU301  ALA302  GLU305  TRP335  MET336  LEU339  MET340 
 GLY342  LEU343  ARG346  PHE356  ILE373  ILE376  PHE377  LEU380  LYS471  GLY472 
 MET473  HIS475  LEU476  LEU477  ASN478  MET479  VAL484  VAL487 

> <Gold.Protein.RotatedAtoms>
   36.5812   34.7322   41.3369 H   0  0  0  0  0  0  0  0  0  0  0  0  # atno 496  bound_to 491 

> <Gold.Score>
     Score     S(PLP)   S(hbond)     S(cho)   S(metal)  DE(clash)   DE(tors)     intcor
     50.67     -51.62       0.00       0.00       0.00       0.00       0.62       0.29

> <Gold.PLP.Fitness>
50.6665

> <Gold.PLP.PLP>
-51.6151

> <Gold.PLP.part.hbond>
0.0000

> <Gold.PLP.part.metal>
0.0000

> <Gold.PLP.part.buried>
-2.8464

> <Gold.PLP.part.nonpolar>
-49.9583

> <Gold.PLP.part.repulsive>
0.0977

> <Gold.PLP.ligand.clash>
0.0000

> <Gold.PLP.ligand.torsion>
0.6189

> <Gold.PLP.Chemscore.Hbond>
0.0000

> <Gold.PLP.Chemscore.CHOScore>
0.0000

> <Gold.PLP.Chemscore.Metal>
0.0000

> <Gold.PLP.Chemscore.Internal.Correction>
0.2892

