#       Name:                EN300-94340_i001
#       Creating user name   aseyller
#       Creation time:       Fri Apr 21 18:12:43 2023


#       File generated by GOLD software.
#

@<TRIPOS>MOLECULE
EN300-94340_i001|benzaldehydes|mol2|464|dock20
    24    26     1
SMALL
USER_CHARGES


@<TRIPOS>ATOM
      1 O1          30.0542  38.7974  37.2339 O.2            1 <1>                0.0000
      2 C2          29.3023  38.1961  37.9768 C.2            1 <1>                0.0000
      3 C3          29.6466  36.9194  38.4383 C.2            1 <1>                0.0000
      4 C4          28.9050  36.1118  39.3076 C.2            1 <1>                0.0000
      5 N5          29.5781  34.9851  39.4926 N.2            1 <1>                0.0000
      6 C6          30.7136  35.0133  38.7945 C.2            1 <1>                0.0000
      7 C7          31.7509  34.0733  38.6617 C.2            1 <1>                0.0000
      8 C8          32.8194  34.3633  37.8658 C.2            1 <1>                0.0000
      9 C9          32.8683  35.5913  37.1931 C.2            1 <1>                0.0000
     10 C10         31.8600  36.4829  37.3345 C.2            1 <1>                0.0000
     11 N11         30.7889  36.1984  38.1206 N.pl3          1 <1>                0.0000
     12 N12         27.6743  36.4357  39.8791 N.pl3          1 <1>                0.0000
     13 C13         26.5435  36.8332  39.2111 C.2            1 <1>                0.0000
     14 C14         25.5940  37.0420  40.1420 C.2            1 <1>                0.0000
     15 N15         26.1232  36.7811  41.3470 N.2            1 <1>                0.0000
     16 C16         27.3661  36.4115  41.2034 C.2            1 <1>                0.0000
     17 H17         28.3710  38.6484  38.2844 H              1 <1>                0.0000
     18 H18         31.7019  33.1302  39.1857 H              1 <1>                0.0000
     19 H19         33.6234  33.6507  37.7549 H              1 <1>                0.0000
     20 H20         33.7119  35.8269  36.5613 H              1 <1>                0.0000
     21 H21         31.9046  37.4276  36.8132 H              1 <1>                0.0000
     22 H22         26.4362  36.9555  38.1434 H              1 <1>                0.0000
     23 H23         24.5811  37.3646  39.9518 H              1 <1>                0.0000
     24 H24         28.0395  36.1390  42.0026 H              1 <1>                0.0000
@<TRIPOS>BOND
    1    1    2 2     
    2    2    3 1     
    3    2   17 1     
    4    3    4 2     
    5    3   11 1     
    6    4    5 1     
    7    4   12 1     
    8    5    6 2     
    9    6    7 1     
   10    6   11 1     
   11    7    8 2     
   12    7   18 1     
   13    8    9 1     
   14    8   19 1     
   15    9   10 2     
   16    9   20 1     
   17   10   11 1     
   18   10   21 1     
   19   12   13 1     
   20   12   16 1     
   21   13   14 2     
   22   13   22 1     
   23   14   15 1     
   24   14   23 1     
   25   15   16 2     
   26   16   24 1     
@<TRIPOS>SUBSTRUCTURE
      1 ****           1
@<TRIPOS>COMMENT
> <Gold.Version>
2022.2.0

> <Gold.Id.Protein>
1qkm|1qkm_protein|mol2

> <Gold.Protein.RotatedTorsions>
[  496  491  490  487 ] final  144.03 input  -89.99 | X-H torsion

> <Gold.Protein.ActiveResidues>
 MET295  LEU298  THR299  LEU301  ALA302  GLU305  TRP335  MET336  LEU339  MET340 
 GLY342  LEU343  ARG346  PHE356  ILE373  ILE376  PHE377  LEU380  LYS471  GLY472 
 MET473  HIS475  LEU476  LEU477  ASN478  MET479  VAL484  VAL487 

> <Gold.Protein.RotatedAtoms>
   37.2355   33.0542   41.2754 H   0  0  0  0  0  0  0  0  0  0  0  0  # atno 496  bound_to 491 

> <Gold.Score>
     Score     S(PLP)   S(hbond)     S(cho)   S(metal)  DE(clash)   DE(tors)     intcor
     52.29     -51.14       0.00       0.94       0.00       0.00       0.98       0.29

> <Gold.PLP.Fitness>
52.2886

> <Gold.PLP.PLP>
-51.1360

> <Gold.PLP.part.hbond>
0.0000

> <Gold.PLP.part.metal>
0.0000

> <Gold.PLP.part.buried>
-4.3039

> <Gold.PLP.part.nonpolar>
-48.1008

> <Gold.PLP.part.repulsive>
0.2641

> <Gold.PLP.ligand.clash>
0.0000

> <Gold.PLP.ligand.torsion>
0.9754

> <Gold.PLP.Chemscore.Hbond>
0.0000

> <Gold.PLP.Chemscore.CHOScore>
0.9381

> <Gold.PLP.Chemscore.Metal>
0.0000

> <Gold.Chemscore.Hbonds>
donor molecule, donor type, donor heavy atom, donor atom, acceptor molecule, acceptor atom, score
      L1  C    14    23       P1  1131  0.94

> <Gold.PLP.Chemscore.Internal.Correction>
0.2892

