#       Name:                EN300-94340_i001
#       Creating user name   aseyller
#       Creation time:       Fri Apr 21 18:12:41 2023


#       File generated by GOLD software.
#

@<TRIPOS>MOLECULE
EN300-94340_i001|benzaldehydes|mol2|464|dock15
    24    26     1
SMALL
USER_CHARGES


@<TRIPOS>ATOM
      1 O1          29.6036  39.2464  36.8457 O.2            1 <1>                0.0000
      2 C2          29.1782  38.3980  37.6060 C.2            1 <1>                0.0000
      3 C3          29.9834  37.3083  37.9605 C.2            1 <1>                0.0000
      4 C4          29.7790  36.4237  39.0252 C.2            1 <1>                0.0000
      5 N5          30.7643  35.5372  39.0147 N.2            1 <1>                0.0000
      6 C6          31.5969  35.7939  38.0055 C.2            1 <1>                0.0000
      7 C7          32.7726  35.1512  37.5793 C.2            1 <1>                0.0000
      8 C8          33.4426  35.6320  36.4934 C.2            1 <1>                0.0000
      9 C9          32.9508  36.7576  35.8194 C.2            1 <1>                0.0000
     10 C10         31.8177  37.3624  36.2457 C.2            1 <1>                0.0000
     11 N11         31.1411  36.8851  37.3230 N.pl3          1 <1>                0.0000
     12 N12         28.7242  36.4673  39.9372 N.pl3          1 <1>                0.0000
     13 C13         27.3977  36.6583  39.6424 C.2            1 <1>                0.0000
     14 C14         26.7308  36.6301  40.8112 C.2            1 <1>                0.0000
     15 N15         27.6189  36.4279  41.7964 N.2            1 <1>                0.0000
     16 C16         28.8150  36.3228  41.2863 C.2            1 <1>                0.0000
     17 H17         28.1811  38.4870  38.0113 H              1 <1>                0.0000
     18 H18         33.1419  34.2845  38.1074 H              1 <1>                0.0000
     19 H19         34.3471  35.1484  36.1551 H              1 <1>                0.0000
     20 H20         33.4770  37.1433  34.9586 H              1 <1>                0.0000
     21 H21         31.4448  38.2297  35.7215 H              1 <1>                0.0000
     22 H22         26.9709  36.8037  38.6611 H              1 <1>                0.0000
     23 H23         25.6647  36.7501  40.9347 H              1 <1>                0.0000
     24 H24         29.7256  36.1564  41.8427 H              1 <1>                0.0000
@<TRIPOS>BOND
    1    1    2 2     
    2    2    3 1     
    3    2   17 1     
    4    3    4 2     
    5    3   11 1     
    6    4    5 1     
    7    4   12 1     
    8    5    6 2     
    9    6    7 1     
   10    6   11 1     
   11    7    8 2     
   12    7   18 1     
   13    8    9 1     
   14    8   19 1     
   15    9   10 2     
   16    9   20 1     
   17   10   11 1     
   18   10   21 1     
   19   12   13 1     
   20   12   16 1     
   21   13   14 2     
   22   13   22 1     
   23   14   15 1     
   24   14   23 1     
   25   15   16 2     
   26   16   24 1     
@<TRIPOS>SUBSTRUCTURE
      1 ****           1
@<TRIPOS>COMMENT
> <Gold.Version>
2022.2.0

> <Gold.Id.Protein>
1qkm|1qkm_protein|mol2

> <Gold.Protein.RotatedTorsions>
[  496  491  490  487 ] final  -21.38 input  -89.99 | X-H torsion

> <Gold.Protein.ActiveResidues>
 MET295  LEU298  THR299  LEU301  ALA302  GLU305  TRP335  MET336  LEU339  MET340 
 GLY342  LEU343  ARG346  PHE356  ILE373  ILE376  PHE377  LEU380  LYS471  GLY472 
 MET473  HIS475  LEU476  LEU477  ASN478  MET479  VAL484  VAL487 

> <Gold.Protein.RotatedAtoms>
   36.2847   34.4851   42.0167 H   0  0  0  0  0  0  0  0  0  0  0  0  # atno 496  bound_to 491 

> <Gold.Score>
     Score     S(PLP)   S(hbond)     S(cho)   S(metal)  DE(clash)   DE(tors)     intcor
     52.83     -51.13       0.00       1.00       0.00       0.00       0.80       0.29

> <Gold.PLP.Fitness>
52.8279

> <Gold.PLP.PLP>
-51.1323

> <Gold.PLP.part.hbond>
0.0000

> <Gold.PLP.part.metal>
0.0000

> <Gold.PLP.part.buried>
-5.1320

> <Gold.PLP.part.nonpolar>
-47.2047

> <Gold.PLP.part.repulsive>
0.2245

> <Gold.PLP.ligand.clash>
0.0000

> <Gold.PLP.ligand.torsion>
0.7968

> <Gold.PLP.Chemscore.Hbond>
0.0000

> <Gold.PLP.Chemscore.CHOScore>
1.0000

> <Gold.PLP.Chemscore.Metal>
0.0000

> <Gold.Chemscore.Hbonds>
donor molecule, donor type, donor heavy atom, donor atom, acceptor molecule, acceptor atom, score
      L1  C    16    24       P1   470  1.00

> <Gold.PLP.Chemscore.Internal.Correction>
0.2892

