#       Name:                EN300-94340_i001
#       Creating user name   aseyller
#       Creation time:       Fri Apr 21 18:12:39 2023


#       File generated by GOLD software.
#

@<TRIPOS>MOLECULE
EN300-94340_i001|benzaldehydes|mol2|464|dock12
    24    26     1
SMALL
USER_CHARGES


@<TRIPOS>ATOM
      1 O1          28.3462  39.1226  36.9983 O.2            1 <1>                0.0000
      2 C2          28.8800  38.0300  37.0029 C.2            1 <1>                0.0000
      3 C3          28.7725  37.2028  38.1280 C.2            1 <1>                0.0000
      4 C4          29.7630  36.3656  38.6531 C.2            1 <1>                0.0000
      5 N5          29.2608  35.7564  39.7177 N.2            1 <1>                0.0000
      6 C6          28.0020  36.1489  39.9152 C.2            1 <1>                0.0000
      7 C7          27.0580  35.7972  40.8961 C.2            1 <1>                0.0000
      8 C8          25.8170  36.3613  40.8638 C.2            1 <1>                0.0000
      9 C9          25.5010  37.2814  39.8555 C.2            1 <1>                0.0000
     10 C10         26.4236  37.6063  38.9202 C.2            1 <1>                0.0000
     11 N11         27.6643  37.0533  38.9497 N.pl3          1 <1>                0.0000
     12 N12         31.0519  36.2007  38.1452 N.pl3          1 <1>                0.0000
     13 C13         31.8637  35.1080  38.3185 C.2            1 <1>                0.0000
     14 C14         33.0110  35.3672  37.6640 C.2            1 <1>                0.0000
     15 N15         32.9094  36.5824  37.1043 N.2            1 <1>                0.0000
     16 C16         31.7395  37.0897  37.3797 C.2            1 <1>                0.0000
     17 H17         29.4334  37.6956  36.1378 H              1 <1>                0.0000
     18 H18         27.3133  35.0864  41.6681 H              1 <1>                0.0000
     19 H19         25.0819  36.1001  41.6107 H              1 <1>                0.0000
     20 H20         24.5199  37.7317  39.8245 H              1 <1>                0.0000
     21 H21         26.1728  38.3161  38.1458 H              1 <1>                0.0000
     22 H22         31.6277  34.2123  38.8738 H              1 <1>                0.0000
     23 H23         33.8660  34.7106  37.6008 H              1 <1>                0.0000
     24 H24         31.3800  38.0565  37.0597 H              1 <1>                0.0000
@<TRIPOS>BOND
    1    1    2 2     
    2    2    3 1     
    3    2   17 1     
    4    3    4 2     
    5    3   11 1     
    6    4    5 1     
    7    4   12 1     
    8    5    6 2     
    9    6    7 1     
   10    6   11 1     
   11    7    8 2     
   12    7   18 1     
   13    8    9 1     
   14    8   19 1     
   15    9   10 2     
   16    9   20 1     
   17   10   11 1     
   18   10   21 1     
   19   12   13 1     
   20   12   16 1     
   21   13   14 2     
   22   13   22 1     
   23   14   15 1     
   24   14   23 1     
   25   15   16 2     
   26   16   24 1     
@<TRIPOS>SUBSTRUCTURE
      1 ****           1
@<TRIPOS>COMMENT
> <Gold.Version>
2022.2.0

> <Gold.Id.Protein>
1qkm|1qkm_protein|mol2

> <Gold.Protein.RotatedTorsions>
[  496  491  490  487 ] final  163.98 input  -89.99 | X-H torsion

> <Gold.Protein.ActiveResidues>
 MET295  LEU298  THR299  LEU301  ALA302  GLU305  TRP335  MET336  LEU339  MET340 
 GLY342  LEU343  ARG346  PHE356  ILE373  ILE376  PHE377  LEU380  LYS471  GLY472 
 MET473  HIS475  LEU476  LEU477  ASN478  MET479  VAL484  VAL487 

> <Gold.Protein.RotatedAtoms>
   37.3060   33.2512   41.0243 H   0  0  0  0  0  0  0  0  0  0  0  0  # atno 496  bound_to 491 

> <Gold.Score>
     Score     S(PLP)   S(hbond)     S(cho)   S(metal)  DE(clash)   DE(tors)     intcor
     51.83     -52.59       0.00       0.00       0.00       0.00       0.53       0.29

> <Gold.PLP.Fitness>
51.8318

> <Gold.PLP.PLP>
-52.5881

> <Gold.PLP.part.hbond>
0.0000

> <Gold.PLP.part.metal>
0.0000

> <Gold.PLP.part.buried>
-4.4984

> <Gold.PLP.part.nonpolar>
-48.4028

> <Gold.PLP.part.repulsive>
0.0772

> <Gold.PLP.ligand.clash>
0.0000

> <Gold.PLP.ligand.torsion>
0.5250

> <Gold.PLP.Chemscore.Hbond>
0.0000

> <Gold.PLP.Chemscore.CHOScore>
0.0000

> <Gold.PLP.Chemscore.Metal>
0.0000

> <Gold.PLP.Chemscore.Internal.Correction>
0.2937

