#       Name:                EN300-94340_i001
#       Creating user name   aseyller
#       Creation time:       Fri Apr 21 18:12:37 2023


#       File generated by GOLD software.
#

@<TRIPOS>MOLECULE
EN300-94340_i001|benzaldehydes|mol2|464|dock8
    24    26     1
SMALL
USER_CHARGES


@<TRIPOS>ATOM
      1 O1          29.6356  38.7194  36.9675 O.2            1 <1>                0.0000
      2 C2          28.8622  38.1785  37.7344 C.2            1 <1>                0.0000
      3 C3          29.1938  36.9452  38.3093 C.2            1 <1>                0.0000
      4 C4          28.4455  36.2280  39.2493 C.2            1 <1>                0.0000
      5 N5          29.1068  35.1154  39.5349 N.2            1 <1>                0.0000
      6 C6          30.2408  35.0676  38.8354 C.2            1 <1>                0.0000
      7 C7          31.2675  34.1081  38.7870 C.2            1 <1>                0.0000
      8 C8          32.3372  34.3129  37.9666 C.2            1 <1>                0.0000
      9 C9          32.3978  35.4742  37.1852 C.2            1 <1>                0.0000
     10 C10         31.3996  36.3860  37.2465 C.2            1 <1>                0.0000
     11 N11         30.3274  36.1858  38.0567 N.pl3          1 <1>                0.0000
     12 N12         27.2198  36.6160  39.7909 N.pl3          1 <1>                0.0000
     13 C13         26.6791  36.1868  40.9768 C.2            1 <1>                0.0000
     14 C14         25.4930  36.8087  41.1120 C.2            1 <1>                0.0000
     15 N15         25.3082  37.5970  40.0421 N.2            1 <1>                0.0000
     16 C16         26.3371  37.4955  39.2465 C.2            1 <1>                0.0000
     17 H17         27.9216  38.6512  37.9756 H              1 <1>                0.0000
     18 H18         31.2096  33.2170  39.3945 H              1 <1>                0.0000
     19 H19         33.1332  33.5844  37.9197 H              1 <1>                0.0000
     20 H20         33.2424  35.6422  36.5334 H              1 <1>                0.0000
     21 H21         31.4533  37.2790  36.6416 H              1 <1>                0.0000
     22 H22         27.1203  35.4847  41.6687 H              1 <1>                0.0000
     23 H23         24.8080  36.6926  41.9387 H              1 <1>                0.0000
     24 H24         26.4633  38.0169  38.3091 H              1 <1>                0.0000
@<TRIPOS>BOND
    1    1    2 2     
    2    2    3 1     
    3    2   17 1     
    4    3    4 2     
    5    3   11 1     
    6    4    5 1     
    7    4   12 1     
    8    5    6 2     
    9    6    7 1     
   10    6   11 1     
   11    7    8 2     
   12    7   18 1     
   13    8    9 1     
   14    8   19 1     
   15    9   10 2     
   16    9   20 1     
   17   10   11 1     
   18   10   21 1     
   19   12   13 1     
   20   12   16 1     
   21   13   14 2     
   22   13   22 1     
   23   14   15 1     
   24   14   23 1     
   25   15   16 2     
   26   16   24 1     
@<TRIPOS>SUBSTRUCTURE
      1 ****           1
@<TRIPOS>COMMENT
> <Gold.Version>
2022.2.0

> <Gold.Id.Protein>
1qkm|1qkm_protein|mol2

> <Gold.Protein.RotatedTorsions>
[  496  491  490  487 ] final   85.17 input  -89.99 | X-H torsion

> <Gold.Protein.ActiveResidues>
 MET295  LEU298  THR299  LEU301  ALA302  GLU305  TRP335  MET336  LEU339  MET340 
 GLY342  LEU343  ARG346  PHE356  ILE373  ILE376  PHE377  LEU380  LYS471  GLY472 
 MET473  HIS475  LEU476  LEU477  ASN478  MET479  VAL484  VAL487 

> <Gold.Protein.RotatedAtoms>
   36.7756   33.0565   42.0801 H   0  0  0  0  0  0  0  0  0  0  0  0  # atno 496  bound_to 491 

> <Gold.Score>
     Score     S(PLP)   S(hbond)     S(cho)   S(metal)  DE(clash)   DE(tors)     intcor
     53.56     -50.88       0.00       0.94       0.00       0.00       0.21       0.29

> <Gold.PLP.Fitness>
53.5621

> <Gold.PLP.PLP>
-50.8751

> <Gold.PLP.part.hbond>
0.0000

> <Gold.PLP.part.metal>
0.0000

> <Gold.PLP.part.buried>
-3.0711

> <Gold.PLP.part.nonpolar>
-48.2691

> <Gold.PLP.part.repulsive>
0.1630

> <Gold.PLP.ligand.clash>
0.0000

> <Gold.PLP.ligand.torsion>
0.2135

> <Gold.PLP.Chemscore.Hbond>
0.0000

> <Gold.PLP.Chemscore.CHOScore>
0.9401

> <Gold.PLP.Chemscore.Metal>
0.0000

> <Gold.Chemscore.Hbonds>
donor molecule, donor type, donor heavy atom, donor atom, acceptor molecule, acceptor atom, score
      L1  C    13    22       P1   582  0.94

> <Gold.PLP.Chemscore.Internal.Correction>
0.2937

