#       Name:                EN300-94340_i001
#       Creating user name   aseyller
#       Creation time:       Fri Apr 21 18:12:33 2023


#       File generated by GOLD software.
#

@<TRIPOS>MOLECULE
EN300-94340_i001
    24    26     1
SMALL
USER_CHARGES


@<TRIPOS>ATOM
      1 O1          -1.7029  -2.3562   0.1541 O.2            1 <1>                0.0000
      2 C2          -0.5027  -2.1613   0.1374 C.2            1 <1>                0.0000
      3 C3          -0.0066  -0.8555   0.0360 C.2            1 <1>                0.0000
      4 C4          -0.7552   0.3232  -0.0534 C.2            1 <1>                0.0000
      5 N5           0.0915   1.3398  -0.1332 N.2            1 <1>                0.0000
      6 C6           1.3464   0.8907  -0.1008 C.2            1 <1>                0.0000
      7 C7           2.5799   1.5635  -0.1542 C.2            1 <1>                0.0000
      8 C8           3.7375   0.8449  -0.1002 C.2            1 <1>                0.0000
      9 C9           3.6812  -0.5509   0.0074 C.2            1 <1>                0.0000
     10 C10          2.4839  -1.1798   0.0568 C.2            1 <1>                0.0000
     11 N11          1.3262  -0.4700   0.0101 N.pl3          1 <1>                0.0000
     12 N12         -2.1474   0.4126  -0.0582 N.pl3          1 <1>                0.0000
     13 C13         -2.9029   1.4125   0.5007 C.2            1 <1>                0.0000
     14 C14         -4.1920   1.1046   0.2657 C.2            1 <1>                0.0000
     15 N15         -4.2300  -0.0497  -0.4172 N.2            1 <1>                0.0000
     16 C16         -3.0127  -0.4715  -0.6228 C.2            1 <1>                0.0000
     17 H17          0.1808  -2.9948   0.2052 H              1 <1>                0.0000
     18 H18          2.6103   2.6399  -0.2375 H              1 <1>                0.0000
     19 H19          4.6920   1.3486  -0.1405 H              1 <1>                0.0000
     20 H20          4.5945  -1.1257   0.0506 H              1 <1>                0.0000
     21 H21          2.4482  -2.2560   0.1394 H              1 <1>                0.0000
     22 H22         -2.5341   2.2797   1.0282 H              1 <1>                0.0000
     23 H23         -5.0481   1.6861   0.5742 H              1 <1>                0.0000
     24 H24         -2.7384  -1.3750  -1.1470 H              1 <1>                0.0000
@<TRIPOS>BOND
    1    1    2 2     
    2    2    3 1     
    3    2   17 1     
    4    3    4 2     
    5    3   11 1     
    6    4    5 1     
    7    4   12 1     
    8    5    6 2     
    9    6    7 1     
   10    6   11 1     
   11    7    8 2     
   12    7   18 1     
   13    8    9 1     
   14    8   19 1     
   15    9   10 2     
   16    9   20 1     
   17   10   11 1     
   18   10   21 1     
   19   12   13 1     
   20   12   16 1     
   21   13   14 2     
   22   13   22 1     
   23   14   15 1     
   24   14   23 1     
   25   15   16 2     
   26   16   24 1     
@<TRIPOS>SUBSTRUCTURE
      1 ****           1
