#       Name:                EN300-94340_i001
#       Creating user name   aseyller
#       Creation time:       Fri Apr 21 18:12:38 2023


#       File generated by GOLD software.
#

@<TRIPOS>MOLECULE
EN300-94340_i001|benzaldehydes|mol2|464|dock9
    24    26     1
SMALL
USER_CHARGES


@<TRIPOS>ATOM
      1 O1          31.7250  34.1632  39.0815 O.2            1 <1>                0.0000
      2 C2          31.8348  35.3406  38.7983 C.2            1 <1>                0.0000
      3 C3          30.7151  36.0657  38.3717 C.2            1 <1>                0.0000
      4 C4          30.6071  36.8388  37.2104 C.2            1 <1>                0.0000
      5 N5          29.3879  37.3577  37.1771 N.2            1 <1>                0.0000
      6 C6          28.6974  36.9670  38.2486 C.2            1 <1>                0.0000
      7 C7          27.3825  37.2432  38.6629 C.2            1 <1>                0.0000
      8 C8          26.9190  36.7018  39.8255 C.2            1 <1>                0.0000
      9 C9          27.7583  35.8798  40.5889 C.2            1 <1>                0.0000
     10 C10         29.0210  35.6265  40.1732 C.2            1 <1>                0.0000
     11 N11         29.4877  36.1571  39.0126 N.pl3          1 <1>                0.0000
     12 N12         31.6066  37.0300  36.2562 N.pl3          1 <1>                0.0000
     13 C13         31.7005  38.0741  35.3707 C.2            1 <1>                0.0000
     14 C14         32.8102  37.8651  34.6381 C.2            1 <1>                0.0000
     15 N15         33.3828  36.7271  35.0590 N.2            1 <1>                0.0000
     16 C16         32.6757  36.2203  36.0312 C.2            1 <1>                0.0000
     17 H17         32.7950  35.8285  38.8799 H              1 <1>                0.0000
     18 H18         26.7452  37.8787  38.0659 H              1 <1>                0.0000
     19 H19         25.9113  36.9058  40.1559 H              1 <1>                0.0000
     20 H20         27.3972  35.4480  41.5106 H              1 <1>                0.0000
     21 H21         29.6624  34.9922  40.7670 H              1 <1>                0.0000
     22 H22         31.0154  38.9039  35.2790 H              1 <1>                0.0000
     23 H23         33.1761  38.5031  33.8473 H              1 <1>                0.0000
     24 H24         32.8980  35.3071  36.5632 H              1 <1>                0.0000
@<TRIPOS>BOND
    1    1    2 2     
    2    2    3 1     
    3    2   17 1     
    4    3    4 2     
    5    3   11 1     
    6    4    5 1     
    7    4   12 1     
    8    5    6 2     
    9    6    7 1     
   10    6   11 1     
   11    7    8 2     
   12    7   18 1     
   13    8    9 1     
   14    8   19 1     
   15    9   10 2     
   16    9   20 1     
   17   10   11 1     
   18   10   21 1     
   19   12   13 1     
   20   12   16 1     
   21   13   14 2     
   22   13   22 1     
   23   14   15 1     
   24   14   23 1     
   25   15   16 2     
   26   16   24 1     
@<TRIPOS>SUBSTRUCTURE
      1 ****           1
@<TRIPOS>COMMENT
> <Gold.Version>
2022.2.0

> <Gold.Id.Protein>
1qkm|1qkm_protein|mol2

> <Gold.Protein.RotatedTorsions>
[  496  491  490  487 ] final   84.63 input  -89.99 | X-H torsion

> <Gold.Protein.ActiveResidues>
 MET295  LEU298  THR299  LEU301  ALA302  GLU305  TRP335  MET336  LEU339  MET340 
 GLY342  LEU343  ARG346  PHE356  ILE373  ILE376  PHE377  LEU380  LYS471  GLY472 
 MET473  HIS475  LEU476  LEU477  ASN478  MET479  VAL484  VAL487 

> <Gold.Protein.RotatedAtoms>
   36.7706   33.0607   42.0861 H   0  0  0  0  0  0  0  0  0  0  0  0  # atno 496  bound_to 491 

> <Gold.Score>
     Score     S(PLP)   S(hbond)     S(cho)   S(metal)  DE(clash)   DE(tors)     intcor
     53.29     -49.12       0.00       1.75       0.00       0.00       0.69       0.29

> <Gold.PLP.Fitness>
53.2926

> <Gold.PLP.PLP>
-49.1231

> <Gold.PLP.part.hbond>
0.0000

> <Gold.PLP.part.metal>
0.0000

> <Gold.PLP.part.buried>
-4.3063

> <Gold.PLP.part.nonpolar>
-45.2732

> <Gold.PLP.part.repulsive>
0.3281

> <Gold.PLP.ligand.clash>
0.0000

> <Gold.PLP.ligand.torsion>
0.6863

> <Gold.PLP.Chemscore.Hbond>
0.0000

> <Gold.PLP.Chemscore.CHOScore>
1.7495

> <Gold.PLP.Chemscore.Metal>
0.0000

> <Gold.Chemscore.Hbonds>
donor molecule, donor type, donor heavy atom, donor atom, acceptor molecule, acceptor atom, score
      L1  C    10    21       P1   470  1.00
      L1  C    14    23       P1  3229  0.75

> <Gold.PLP.Chemscore.Internal.Correction>
0.2937

