#       Name:                EN300-94340_i001
#       Creating user name   aseyller
#       Creation time:       Fri Apr 21 18:12:35 2023


#       File generated by GOLD software.
#

@<TRIPOS>MOLECULE
EN300-94340_i001|benzaldehydes|mol2|464|dock4
    24    26     1
SMALL
USER_CHARGES


@<TRIPOS>ATOM
      1 O1          31.7752  34.7243  39.0418 O.2            1 <1>                0.0000
      2 C2          31.7384  35.8104  38.4962 C.2            1 <1>                0.0000
      3 C3          30.5057  36.3820  38.1566 C.2            1 <1>                0.0000
      4 C4          30.2156  37.1366  37.0146 C.2            1 <1>                0.0000
      5 N5          28.9394  37.4899  37.0718 N.2            1 <1>                0.0000
      6 C6          28.3833  37.0090  38.1840 C.2            1 <1>                0.0000
      7 C7          27.0758  37.1081  38.6917 C.2            1 <1>                0.0000
      8 C8          26.7705  36.5077  39.8773 C.2            1 <1>                0.0000
      9 C9          27.7623  35.8020  40.5712 C.2            1 <1>                0.0000
     10 C10         29.0150  35.7187  40.0660 C.2            1 <1>                0.0000
     11 N11         29.3251  36.3089  38.8820 N.pl3          1 <1>                0.0000
     12 N12         31.1117  37.4604  35.9956 N.pl3          1 <1>                0.0000
     13 C13         32.2897  36.8173  35.7099 C.2            1 <1>                0.0000
     14 C14         32.8354  37.4534  34.6567 C.2            1 <1>                0.0000
     15 N15         32.0188  38.4578  34.3038 N.2            1 <1>                0.0000
     16 C16         30.9804  38.4694  35.0934 C.2            1 <1>                0.0000
     17 H17         32.6560  36.3362  38.2773 H              1 <1>                0.0000
     18 H18         26.3201  37.6552  38.1476 H              1 <1>                0.0000
     19 H19         25.7704  36.5759  40.2791 H              1 <1>                0.0000
     20 H20         27.5268  35.3242  41.5107 H              1 <1>                0.0000
     21 H21         29.7744  35.1734  40.6066 H              1 <1>                0.0000
     22 H22         32.7004  35.9649  36.2305 H              1 <1>                0.0000
     23 H23         33.7698  37.1995  34.1785 H              1 <1>                0.0000
     24 H24         30.1580  39.1677  35.0437 H              1 <1>                0.0000
@<TRIPOS>BOND
    1    1    2 2     
    2    2    3 1     
    3    2   17 1     
    4    3    4 2     
    5    3   11 1     
    6    4    5 1     
    7    4   12 1     
    8    5    6 2     
    9    6    7 1     
   10    6   11 1     
   11    7    8 2     
   12    7   18 1     
   13    8    9 1     
   14    8   19 1     
   15    9   10 2     
   16    9   20 1     
   17   10   11 1     
   18   10   21 1     
   19   12   13 1     
   20   12   16 1     
   21   13   14 2     
   22   13   22 1     
   23   14   15 1     
   24   14   23 1     
   25   15   16 2     
   26   16   24 1     
@<TRIPOS>SUBSTRUCTURE
      1 ****           1
@<TRIPOS>COMMENT
> <Gold.Version>
2022.2.0

> <Gold.Id.Protein>
1qkm|1qkm_protein|mol2

> <Gold.Protein.RotatedTorsions>
[  496  491  490  487 ] final  145.85 input  -89.99 | X-H torsion

> <Gold.Protein.ActiveResidues>
 MET295  LEU298  THR299  LEU301  ALA302  GLU305  TRP335  MET336  LEU339  MET340 
 GLY342  LEU343  ARG346  PHE356  ILE373  ILE376  PHE377  LEU380  LYS471  GLY472 
 MET473  HIS475  LEU476  LEU477  ASN478  MET479  VAL484  VAL487 

> <Gold.Protein.RotatedAtoms>
   37.2443   33.0686   41.2506 H   0  0  0  0  0  0  0  0  0  0  0  0  # atno 496  bound_to 491 

> <Gold.Score>
     Score     S(PLP)   S(hbond)     S(cho)   S(metal)  DE(clash)   DE(tors)     intcor
     55.28     -49.87       0.00       2.00       0.00       0.00       0.44       0.29

> <Gold.PLP.Fitness>
55.2841

> <Gold.PLP.PLP>
-49.8723

> <Gold.PLP.part.hbond>
0.0000

> <Gold.PLP.part.metal>
0.0000

> <Gold.PLP.part.buried>
-4.6152

> <Gold.PLP.part.nonpolar>
-45.5707

> <Gold.PLP.part.repulsive>
0.7995

> <Gold.PLP.ligand.clash>
0.0000

> <Gold.PLP.ligand.torsion>
0.4413

> <Gold.PLP.Chemscore.Hbond>
0.0000

> <Gold.PLP.Chemscore.CHOScore>
2.0000

> <Gold.PLP.Chemscore.Metal>
0.0000

> <Gold.Chemscore.Hbonds>
donor molecule, donor type, donor heavy atom, donor atom, acceptor molecule, acceptor atom, score
      L1  C    10    21       P1   470  1.00
      L1  C    14    23       P1  3229  1.00

> <Gold.PLP.Chemscore.Internal.Correction>
0.2945

