#       Name:                EN300-94340_i001
#       Creating user name   aseyller
#       Creation time:       Fri Apr 21 18:12:35 2023


#       File generated by GOLD software.
#

@<TRIPOS>MOLECULE
EN300-94340_i001|benzaldehydes|mol2|464|dock3
    24    26     1
SMALL
USER_CHARGES


@<TRIPOS>ATOM
      1 O1          29.0972  39.2375  36.4004 O.2            1 <1>                0.0000
      2 C2          28.8109  38.4137  37.2479 C.2            1 <1>                0.0000
      3 C3          29.7521  37.4519  37.6357 C.2            1 <1>                0.0000
      4 C4          29.6909  36.6220  38.7606 C.2            1 <1>                0.0000
      5 N5          30.7742  35.8584  38.7644 N.2            1 <1>                0.0000
      6 C6          31.5358  36.1434  37.7078 C.2            1 <1>                0.0000
      7 C7          32.7649  35.6161  37.2741 C.2            1 <1>                0.0000
      8 C8          33.3357  36.0990  36.1338 C.2            1 <1>                0.0000
      9 C9          32.6905  37.1119  35.4122 C.2            1 <1>                0.0000
     10 C10         31.5082  37.6067  35.8467 C.2            1 <1>                0.0000
     11 N11         30.9300  37.1259  36.9785 N.pl3          1 <1>                0.0000
     12 N12         28.6697  36.6022  39.7109 N.pl3          1 <1>                0.0000
     13 C13         28.8010  36.3036  41.0438 C.2            1 <1>                0.0000
     14 C14         27.5741  36.4035  41.5882 C.2            1 <1>                0.0000
     15 N15         26.7128  36.7530  40.6206 N.2            1 <1>                0.0000
     16 C16         27.3567  36.8810  39.4932 C.2            1 <1>                0.0000
     17 H17         27.8324  38.4265  37.7047 H              1 <1>                0.0000
     18 H18         33.2528  34.8356  37.8392 H              1 <1>                0.0000
     19 H19         34.2797  35.7034  35.7891 H              1 <1>                0.0000
     20 H20         33.1375  37.4986  34.5083 H              1 <1>                0.0000
     21 H21         31.0167  38.3876  35.2855 H              1 <1>                0.0000
     22 H22         29.7135  36.0389  41.5573 H              1 <1>                0.0000
     23 H23         27.3256  36.2313  42.6249 H              1 <1>                0.0000
     24 H24         26.9192  37.1551  38.5446 H              1 <1>                0.0000
@<TRIPOS>BOND
    1    1    2 2     
    2    2    3 1     
    3    2   17 1     
    4    3    4 2     
    5    3   11 1     
    6    4    5 1     
    7    4   12 1     
    8    5    6 2     
    9    6    7 1     
   10    6   11 1     
   11    7    8 2     
   12    7   18 1     
   13    8    9 1     
   14    8   19 1     
   15    9   10 2     
   16    9   20 1     
   17   10   11 1     
   18   10   21 1     
   19   12   13 1     
   20   12   16 1     
   21   13   14 2     
   22   13   22 1     
   23   14   15 1     
   24   14   23 1     
   25   15   16 2     
   26   16   24 1     
@<TRIPOS>SUBSTRUCTURE
      1 ****           1
@<TRIPOS>COMMENT
> <Gold.Version>
2022.2.0

> <Gold.Id.Protein>
1qkm|1qkm_protein|mol2

> <Gold.Protein.RotatedTorsions>
[  496  491  490  487 ] final  -89.98 input  -89.99 | X-H torsion

> <Gold.Protein.ActiveResidues>
 MET295  LEU298  THR299  LEU301  ALA302  GLU305  TRP335  MET336  LEU339  MET340 
 GLY342  LEU343  ARG346  PHE356  ILE373  ILE376  PHE377  LEU380  LYS471  GLY472 
 MET473  HIS475  LEU476  LEU477  ASN478  MET479  VAL484  VAL487 

> <Gold.Protein.RotatedAtoms>
   36.7571   34.6534   41.0795 H   0  0  0  0  0  0  0  0  0  0  0  0  # atno 496  bound_to 491 

> <Gold.Score>
     Score     S(PLP)   S(hbond)     S(cho)   S(metal)  DE(clash)   DE(tors)     intcor
     56.15     -50.74       0.00       2.00       0.00       0.00       0.44       0.29

> <Gold.PLP.Fitness>
56.1476

> <Gold.PLP.PLP>
-50.7385

> <Gold.PLP.part.hbond>
0.0000

> <Gold.PLP.part.metal>
0.0000

> <Gold.PLP.part.buried>
-4.1939

> <Gold.PLP.part.nonpolar>
-47.2078

> <Gold.PLP.part.repulsive>
0.1668

> <Gold.PLP.ligand.clash>
0.0000

> <Gold.PLP.ligand.torsion>
0.4427

> <Gold.PLP.Chemscore.Hbond>
0.0000

> <Gold.PLP.Chemscore.CHOScore>
2.0000

> <Gold.PLP.Chemscore.Metal>
0.0000

> <Gold.Chemscore.Hbonds>
donor molecule, donor type, donor heavy atom, donor atom, acceptor molecule, acceptor atom, score
      L1  C    13    22       P1   470  1.00
      L1  C    14    23       P1   582  1.00

> <Gold.PLP.Chemscore.Internal.Correction>
0.2945

