#       Name:                EN300-94340_i001
#       Creating user name   aseyller
#       Creation time:       Fri Apr 21 18:12:34 2023


#       File generated by GOLD software.
#

@<TRIPOS>MOLECULE
EN300-94340_i001|benzaldehydes|mol2|464|dock1
    24    26     1
SMALL
USER_CHARGES


@<TRIPOS>ATOM
      1 O1          31.9535  33.7663  38.2590 O.2            1 <1>                0.0000
      2 C2          31.3171  34.6559  38.7904 C.2            1 <1>                0.0000
      3 C3          30.9664  35.7985  38.0603 C.2            1 <1>                0.0000
      4 C4          29.8721  36.6395  38.2903 C.2            1 <1>                0.0000
      5 N5          29.8984  37.6023  37.3797 N.2            1 <1>                0.0000
      6 C6          30.9458  37.4362  36.5717 C.2            1 <1>                0.0000
      7 C7          31.4012  38.1808  35.4693 C.2            1 <1>                0.0000
      8 C8          32.5246  37.7800  34.8086 C.2            1 <1>                0.0000
      9 C9          33.2077  36.6341  35.2369 C.2            1 <1>                0.0000
     10 C10         32.7528  35.9308  36.2998 C.2            1 <1>                0.0000
     11 N11         31.6378  36.3277  36.9672 N.pl3          1 <1>                0.0000
     12 N12         28.9207  36.4906  39.2997 N.pl3          1 <1>                0.0000
     13 C13         29.1050  35.8706  40.5099 C.2            1 <1>                0.0000
     14 C14         27.9364  35.9541  41.1725 C.2            1 <1>                0.0000
     15 N15         27.0585  36.6057  40.3947 N.2            1 <1>                0.0000
     16 C16         27.6367  36.9376  39.2732 C.2            1 <1>                0.0000
     17 H17         31.0185  34.5630  39.8242 H              1 <1>                0.0000
     18 H18         30.8658  39.0623  35.1485 H              1 <1>                0.0000
     19 H19         32.8856  38.3423  33.9601 H              1 <1>                0.0000
     20 H20         34.0981  36.3115  34.7177 H              1 <1>                0.0000
     21 H21         33.2843  35.0483  36.6241 H              1 <1>                0.0000
     22 H22         30.0132  35.4048  40.8628 H              1 <1>                0.0000
     23 H23         27.7392  35.5635  42.1598 H              1 <1>                0.0000
     24 H24         27.1715  37.4713  38.4577 H              1 <1>                0.0000
@<TRIPOS>BOND
    1    1    2 2     
    2    2    3 1     
    3    2   17 1     
    4    3    4 2     
    5    3   11 1     
    6    4    5 1     
    7    4   12 1     
    8    5    6 2     
    9    6    7 1     
   10    6   11 1     
   11    7    8 2     
   12    7   18 1     
   13    8    9 1     
   14    8   19 1     
   15    9   10 2     
   16    9   20 1     
   17   10   11 1     
   18   10   21 1     
   19   12   13 1     
   20   12   16 1     
   21   13   14 2     
   22   13   22 1     
   23   14   15 1     
   24   14   23 1     
   25   15   16 2     
   26   16   24 1     
@<TRIPOS>SUBSTRUCTURE
      1 ****           1
@<TRIPOS>COMMENT
> <Gold.Version>
2022.2.0

> <Gold.Id.Protein>
1qkm|1qkm_protein|mol2

> <Gold.Protein.RotatedTorsions>
[  496  491  490  487 ] final  -84.52 input  -89.99 | X-H torsion

> <Gold.Protein.ActiveResidues>
 MET295  LEU298  THR299  LEU301  ALA302  GLU305  TRP335  MET336  LEU339  MET340 
 GLY342  LEU343  ARG346  PHE356  ILE373  ILE376  PHE377  LEU380  LYS471  GLY472 
 MET473  HIS475  LEU476  LEU477  ASN478  MET479  VAL484  VAL487 

> <Gold.Protein.RotatedAtoms>
   36.7069   34.6855   41.1468 H   0  0  0  0  0  0  0  0  0  0  0  0  # atno 496  bound_to 491 

> <Gold.Score>
     Score     S(PLP)   S(hbond)     S(cho)   S(metal)  DE(clash)   DE(tors)     intcor
     56.97     -51.57       0.00       2.00       0.00       0.00       0.44       0.30

> <Gold.PLP.Fitness>
56.9739

> <Gold.PLP.PLP>
-51.5667

> <Gold.PLP.part.hbond>
0.0000

> <Gold.PLP.part.metal>
0.0000

> <Gold.PLP.part.buried>
-4.4477

> <Gold.PLP.part.nonpolar>
-47.4753

> <Gold.PLP.part.repulsive>
0.1152

> <Gold.PLP.ligand.clash>
0.0000

> <Gold.PLP.ligand.torsion>
0.4438

> <Gold.PLP.Chemscore.Hbond>
0.0000

> <Gold.PLP.Chemscore.CHOScore>
1.9989

> <Gold.PLP.Chemscore.Metal>
0.0000

> <Gold.Chemscore.Hbonds>
donor molecule, donor type, donor heavy atom, donor atom, acceptor molecule, acceptor atom, score
      L1  C    13    22       P1   470  1.00
      L1  C    14    23       P1   582  1.00

> <Gold.PLP.Chemscore.Internal.Correction>
0.2980

