#       Name:                EN300-94340_i001
#       Creating user name   aseyller
#       Creation time:       Fri Apr 21 18:12:39 2023


#       File generated by GOLD software.
#

@<TRIPOS>MOLECULE
EN300-94340_i001|benzaldehydes|mol2|464|dock11
    24    26     1
SMALL
USER_CHARGES


@<TRIPOS>ATOM
      1 O1          31.4795  34.7856  39.0697 O.2            1 <1>                0.0000
      2 C2          31.3616  35.9201  38.6483 C.2            1 <1>                0.0000
      3 C3          30.0866  36.4628  38.4451 C.2            1 <1>                0.0000
      4 C4          29.6783  37.2735  37.3803 C.2            1 <1>                0.0000
      5 N5          28.3998  37.5725  37.5614 N.2            1 <1>                0.0000
      6 C6          27.9535  37.0036  38.6816 C.2            1 <1>                0.0000
      7 C7          26.6894  37.0206  39.2971 C.2            1 <1>                0.0000
      8 C8          26.5029  36.3377  40.4626 C.2            1 <1>                0.0000
      9 C9          27.5717  35.6305  41.0289 C.2            1 <1>                0.0000
     10 C10         28.7808  35.6271  40.4212 C.2            1 <1>                0.0000
     11 N11         28.9725  36.2998  39.2563 N.pl3          1 <1>                0.0000
     12 N12         30.4763  37.6933  36.3158 N.pl3          1 <1>                0.0000
     13 C13         30.2302  38.7533  35.4798 C.2            1 <1>                0.0000
     14 C14         31.2480  38.8003  34.6003 C.2            1 <1>                0.0000
     15 N15         32.0956  37.8001  34.8853 N.2            1 <1>                0.0000
     16 C16         31.6485  37.1334  35.9137 C.2            1 <1>                0.0000
     17 H17         32.2402  36.5110  38.4347 H              1 <1>                0.0000
     18 H18         25.8734  37.5697  38.8509 H              1 <1>                0.0000
     19 H19         25.5374  36.3423  40.9464 H              1 <1>                0.0000
     20 H20         27.4303  35.0877  41.9518 H              1 <1>                0.0000
     21 H21         29.6001  35.0800  40.8637 H              1 <1>                0.0000
     22 H22         29.3825  39.4212  35.5197 H              1 <1>                0.0000
     23 H23         31.3623  39.5189  33.8023 H              1 <1>                0.0000
     24 H24         32.1254  36.2762  36.3654 H              1 <1>                0.0000
@<TRIPOS>BOND
    1    1    2 2     
    2    2    3 1     
    3    2   17 1     
    4    3    4 2     
    5    3   11 1     
    6    4    5 1     
    7    4   12 1     
    8    5    6 2     
    9    6    7 1     
   10    6   11 1     
   11    7    8 2     
   12    7   18 1     
   13    8    9 1     
   14    8   19 1     
   15    9   10 2     
   16    9   20 1     
   17   10   11 1     
   18   10   21 1     
   19   12   13 1     
   20   12   16 1     
   21   13   14 2     
   22   13   22 1     
   23   14   15 1     
   24   14   23 1     
   25   15   16 2     
   26   16   24 1     
@<TRIPOS>SUBSTRUCTURE
      1 ****           1
@<TRIPOS>COMMENT
> <Gold.Version>
2022.2.0

> <Gold.Id.Protein>
1qkm|1qkm_protein|mol2

> <Gold.Protein.RotatedTorsions>
[  496  491  490  487 ] final -120.86 input  -89.99 | X-H torsion

> <Gold.Protein.ActiveResidues>
 MET295  LEU298  THR299  LEU301  ALA302  GLU305  TRP335  MET336  LEU339  MET340 
 GLY342  LEU343  ARG346  PHE356  ILE373  ILE376  PHE377  LEU380  LYS471  GLY472 
 MET473  HIS475  LEU476  LEU477  ASN478  MET479  VAL484  VAL487 

> <Gold.Protein.RotatedAtoms>
   37.0332   34.3449   40.7951 H   0  0  0  0  0  0  0  0  0  0  0  0  # atno 496  bound_to 491 

> <Gold.Score>
     Score     S(PLP)   S(hbond)     S(cho)   S(metal)  DE(clash)   DE(tors)     intcor
     52.23     -49.86       0.00       1.00       0.00       0.00       0.47       0.29

> <Gold.PLP.Fitness>
52.2259

> <Gold.PLP.PLP>
-49.8628

> <Gold.PLP.part.hbond>
0.0000

> <Gold.PLP.part.metal>
0.0000

> <Gold.PLP.part.buried>
-4.6710

> <Gold.PLP.part.nonpolar>
-46.0889

> <Gold.PLP.part.repulsive>
0.8567

> <Gold.PLP.ligand.clash>
0.0000

> <Gold.PLP.ligand.torsion>
0.4651

> <Gold.PLP.Chemscore.Hbond>
0.0000

> <Gold.PLP.Chemscore.CHOScore>
0.9999

> <Gold.PLP.Chemscore.Metal>
0.0000

> <Gold.Chemscore.Hbonds>
donor molecule, donor type, donor heavy atom, donor atom, acceptor molecule, acceptor atom, score
      L1  C    10    21       P1   470  1.00

> <Gold.PLP.Chemscore.Internal.Correction>
0.2937

