#       Name:                EN300-94340_i001
#       Creating user name   aseyller
#       Creation time:       Fri Apr 21 18:12:42 2023


#       File generated by GOLD software.
#

@<TRIPOS>MOLECULE
EN300-94340_i001|benzaldehydes|mol2|464|dock17
    24    26     1
SMALL
USER_CHARGES


@<TRIPOS>ATOM
      1 O1          32.0389  36.2813  37.7763 O.2            1 <1>                0.0000
      2 C2          31.1945  36.1038  38.6333 C.2            1 <1>                0.0000
      3 C3          29.8903  36.5761  38.4399 C.2            1 <1>                0.0000
      4 C4          29.4038  37.2678  37.3251 C.2            1 <1>                0.0000
      5 N5          28.1226  37.5335  37.5364 N.2            1 <1>                0.0000
      6 C6          27.7481  37.0550  38.7231 C.2            1 <1>                0.0000
      7 C7          26.5115  37.0810  39.3917 C.2            1 <1>                0.0000
      8 C8          26.4031  36.5032  40.6220 C.2            1 <1>                0.0000
      9 C9          27.5235  35.8931  41.2012 C.2            1 <1>                0.0000
     10 C10         28.7052  35.8791  40.5417 C.2            1 <1>                0.0000
     11 N11         28.8192  36.4471  39.3126 N.pl3          1 <1>                0.0000
     12 N12         30.1380  37.6167  36.1913 N.pl3          1 <1>                0.0000
     13 C13         30.8105  36.7582  35.3585 C.2            1 <1>                0.0000
     14 C14         31.3778  37.5115  34.3980 C.2            1 <1>                0.0000
     15 N15         31.0645  38.7951  34.6316 N.2            1 <1>                0.0000
     16 C16         30.3179  38.8713  35.6987 C.2            1 <1>                0.0000
     17 H17         31.4492  35.5779  39.5416 H              1 <1>                0.0000
     18 H18         25.6550  37.5547  38.9350 H              1 <1>                0.0000
     19 H19         25.4594  36.5161  41.1471 H              1 <1>                0.0000
     20 H20         27.4441  35.4338  42.1754 H              1 <1>                0.0000
     21 H21         29.5647  35.4073  40.9945 H              1 <1>                0.0000
     22 H22         30.8730  35.6844  35.4552 H              1 <1>                0.0000
     23 H23         31.9815  37.1459  33.5806 H              1 <1>                0.0000
     24 H24         29.9162  39.7792  36.1238 H              1 <1>                0.0000
@<TRIPOS>BOND
    1    1    2 2     
    2    2    3 1     
    3    2   17 1     
    4    3    4 2     
    5    3   11 1     
    6    4    5 1     
    7    4   12 1     
    8    5    6 2     
    9    6    7 1     
   10    6   11 1     
   11    7    8 2     
   12    7   18 1     
   13    8    9 1     
   14    8   19 1     
   15    9   10 2     
   16    9   20 1     
   17   10   11 1     
   18   10   21 1     
   19   12   13 1     
   20   12   16 1     
   21   13   14 2     
   22   13   22 1     
   23   14   15 1     
   24   14   23 1     
   25   15   16 2     
   26   16   24 1     
@<TRIPOS>SUBSTRUCTURE
      1 ****           1
@<TRIPOS>COMMENT
> <Gold.Version>
2022.2.0

> <Gold.Id.Protein>
1qkm|1qkm_protein|mol2

> <Gold.Protein.RotatedTorsions>
[  496  491  490  487 ] final  109.61 input  -89.99 | X-H torsion

> <Gold.Protein.ActiveResidues>
 MET295  LEU298  THR299  LEU301  ALA302  GLU305  TRP335  MET336  LEU339  MET340 
 GLY342  LEU343  ARG346  PHE356  ILE373  ILE376  PHE377  LEU380  LYS471  GLY472 
 MET473  HIS475  LEU476  LEU477  ASN478  MET479  VAL484  VAL487 

> <Gold.Protein.RotatedAtoms>
   36.9960   32.9431   41.7671 H   0  0  0  0  0  0  0  0  0  0  0  0  # atno 496  bound_to 491 

> <Gold.Score>
     Score     S(PLP)   S(hbond)     S(cho)   S(metal)  DE(clash)   DE(tors)     intcor
     52.40     -48.37       0.00       1.96       0.00       0.00       1.07       0.29

> <Gold.PLP.Fitness>
52.4031

> <Gold.PLP.PLP>
-48.3666

> <Gold.PLP.part.hbond>
0.0000

> <Gold.PLP.part.metal>
0.0000

> <Gold.PLP.part.buried>
-4.3584

> <Gold.PLP.part.nonpolar>
-45.6720

> <Gold.PLP.part.repulsive>
0.0583

> <Gold.PLP.ligand.clash>
0.0000

> <Gold.PLP.ligand.torsion>
1.0701

> <Gold.PLP.Chemscore.Hbond>
0.0000

> <Gold.PLP.Chemscore.CHOScore>
1.9625

> <Gold.PLP.Chemscore.Metal>
0.0000

> <Gold.Chemscore.Hbonds>
donor molecule, donor type, donor heavy atom, donor atom, acceptor molecule, acceptor atom, score
      L1  C    10    21       P1   470  1.00
      L1  C    14    23       P1  3187  0.96

> <Gold.PLP.Chemscore.Internal.Correction>
0.2892

