#       Name:                EN300-94340_i001
#       Creating user name   aseyller
#       Creation time:       Fri Apr 21 18:12:36 2023


#       File generated by GOLD software.
#

@<TRIPOS>MOLECULE
EN300-94340_i001|benzaldehydes|mol2|464|dock6
    24    26     1
SMALL
USER_CHARGES


@<TRIPOS>ATOM
      1 O1          29.1375  39.9952  36.3752 O.2            1 <1>                0.0000
      2 C2          28.8432  38.9948  37.0007 C.2            1 <1>                0.0000
      3 C3          29.7663  37.9486  37.1232 C.2            1 <1>                0.0000
      4 C4          29.7642  36.9348  38.0875 C.2            1 <1>                0.0000
      5 N5          30.8044  36.1472  37.8543 N.2            1 <1>                0.0000
      6 C6          31.4821  36.5897  36.7950 C.2            1 <1>                0.0000
      7 C7          32.6401  36.1072  36.1599 C.2            1 <1>                0.0000
      8 C8          33.1305  36.7657  35.0712 C.2            1 <1>                0.0000
      9 C9          32.4747  37.9114  34.6020 C.2            1 <1>                0.0000
     10 C10         31.3617  38.3601  35.2275 C.2            1 <1>                0.0000
     11 N11         30.8634  37.7056  36.3090 N.pl3          1 <1>                0.0000
     12 N12         28.8319  36.7806  39.1138 N.pl3          1 <1>                0.0000
     13 C13         27.4723  36.9349  39.0113 C.2            1 <1>                0.0000
     14 C14         26.9596  36.6943  40.2324 C.2            1 <1>                0.0000
     15 N15         27.9722  36.4006  41.0622 N.2            1 <1>                0.0000
     16 C16         29.0978  36.4429  40.4040 C.2            1 <1>                0.0000
     17 H17         27.8716  38.9147  37.4655 H              1 <1>                0.0000
     18 H18         33.1370  35.2231  36.5313 H              1 <1>                0.0000
     19 H19         34.0193  36.4064  34.5738 H              1 <1>                0.0000
     20 H20         32.8581  38.4373  33.7401 H              1 <1>                0.0000
     21 H21         30.8616  39.2442  34.8605 H              1 <1>                0.0000
     22 H22         26.9197  37.1991  38.1218 H              1 <1>                0.0000
     23 H23         25.9137  36.7319  40.4984 H              1 <1>                0.0000
     24 H24         30.0771  36.2495  40.8161 H              1 <1>                0.0000
@<TRIPOS>BOND
    1    1    2 2     
    2    2    3 1     
    3    2   17 1     
    4    3    4 2     
    5    3   11 1     
    6    4    5 1     
    7    4   12 1     
    8    5    6 2     
    9    6    7 1     
   10    6   11 1     
   11    7    8 2     
   12    7   18 1     
   13    8    9 1     
   14    8   19 1     
   15    9   10 2     
   16    9   20 1     
   17   10   11 1     
   18   10   21 1     
   19   12   13 1     
   20   12   16 1     
   21   13   14 2     
   22   13   22 1     
   23   14   15 1     
   24   14   23 1     
   25   15   16 2     
   26   16   24 1     
@<TRIPOS>SUBSTRUCTURE
      1 ****           1
@<TRIPOS>COMMENT
> <Gold.Version>
2022.2.0

> <Gold.Id.Protein>
1qkm|1qkm_protein|mol2

> <Gold.Protein.RotatedTorsions>
[  496  491  490  487 ] final   89.99 input  -89.99 | X-H torsion

> <Gold.Protein.ActiveResidues>
 MET295  LEU298  THR299  LEU301  ALA302  GLU305  TRP335  MET336  LEU339  MET340 
 GLY342  LEU343  ARG346  PHE356  ILE373  ILE376  PHE377  LEU380  LYS471  GLY472 
 MET473  HIS475  LEU476  LEU477  ASN478  MET479  VAL484  VAL487 

> <Gold.Protein.RotatedAtoms>
   36.8202   33.0220   42.0243 H   0  0  0  0  0  0  0  0  0  0  0  0  # atno 496  bound_to 491 

> <Gold.Score>
     Score     S(PLP)   S(hbond)     S(cho)   S(metal)  DE(clash)   DE(tors)     intcor
     52.60     -50.83       0.00       1.00       0.00       0.00       0.76       0.29

> <Gold.PLP.Fitness>
52.6031

> <Gold.PLP.PLP>
-50.8320

> <Gold.PLP.part.hbond>
0.0000

> <Gold.PLP.part.metal>
0.0000

> <Gold.PLP.part.buried>
-4.6093

> <Gold.PLP.part.nonpolar>
-46.5841

> <Gold.PLP.part.repulsive>
0.1316

> <Gold.PLP.ligand.clash>
0.0000

> <Gold.PLP.ligand.torsion>
0.7613

> <Gold.PLP.Chemscore.Hbond>
0.0000

> <Gold.PLP.Chemscore.CHOScore>
1.0000

> <Gold.PLP.Chemscore.Metal>
0.0000

> <Gold.Chemscore.Hbonds>
donor molecule, donor type, donor heavy atom, donor atom, acceptor molecule, acceptor atom, score
      L1  C    16    24       P1   470  1.00

> <Gold.PLP.Chemscore.Internal.Correction>
0.2937

