#       Name:                EN300-94340_i001
#       Creating user name   aseyller
#       Creation time:       Fri Apr 21 18:12:42 2023


#       File generated by GOLD software.
#

@<TRIPOS>MOLECULE
EN300-94340_i001|benzaldehydes|mol2|464|dock18
    24    26     1
SMALL
USER_CHARGES


@<TRIPOS>ATOM
      1 O1          27.7907  37.8014  37.8126 O.2            1 <1>                0.0000
      2 C2          28.8550  38.0053  37.2608 C.2            1 <1>                0.0000
      3 C3          29.9634  37.2029  37.5590 C.2            1 <1>                0.0000
      4 C4          30.1643  36.4442  38.7173 C.2            1 <1>                0.0000
      5 N5          31.3351  35.8327  38.6073 N.2            1 <1>                0.0000
      6 C6          31.9067  36.1497  37.4453 C.2            1 <1>                0.0000
      7 C7          33.1313  35.7639  36.8719 C.2            1 <1>                0.0000
      8 C8          33.4772  36.2461  35.6442 C.2            1 <1>                0.0000
      9 C9          32.6091  37.1174  34.9732 C.2            1 <1>                0.0000
     10 C10         31.4352  37.4771  35.5423 C.2            1 <1>                0.0000
     11 N11         31.0807  36.9956  36.7625 N.pl3          1 <1>                0.0000
     12 N12         29.2870  36.3485  39.7978 N.pl3          1 <1>                0.0000
     13 C13         28.1570  35.5729  39.8654 C.2            1 <1>                0.0000
     14 C14         27.6132  35.7815  41.0789 C.2            1 <1>                0.0000
     15 N15         28.3844  36.6587  41.7392 N.2            1 <1>                0.0000
     16 C16         29.3929  37.0015  40.9859 C.2            1 <1>                0.0000
     17 H17         28.9443  38.8023  36.5374 H              1 <1>                0.0000
     18 H18         33.7922  35.0919  37.3993 H              1 <1>                0.0000
     19 H19         34.4148  35.9584  35.1921 H              1 <1>                0.0000
     20 H20         32.8774  37.5027  34.0006 H              1 <1>                0.0000
     21 H21         30.7712  38.1494  35.0194 H              1 <1>                0.0000
     22 H22         27.7767  34.9208  39.0931 H              1 <1>                0.0000
     23 H23         26.7113  35.3224  41.4558 H              1 <1>                0.0000
     24 H24         30.1763  37.6935  41.2574 H              1 <1>                0.0000
@<TRIPOS>BOND
    1    1    2 2     
    2    2    3 1     
    3    2   17 1     
    4    3    4 2     
    5    3   11 1     
    6    4    5 1     
    7    4   12 1     
    8    5    6 2     
    9    6    7 1     
   10    6   11 1     
   11    7    8 2     
   12    7   18 1     
   13    8    9 1     
   14    8   19 1     
   15    9   10 2     
   16    9   20 1     
   17   10   11 1     
   18   10   21 1     
   19   12   13 1     
   20   12   16 1     
   21   13   14 2     
   22   13   22 1     
   23   14   15 1     
   24   14   23 1     
   25   15   16 2     
   26   16   24 1     
@<TRIPOS>SUBSTRUCTURE
      1 ****           1
@<TRIPOS>COMMENT
> <Gold.Version>
2022.2.0

> <Gold.Id.Protein>
1qkm|1qkm_protein|mol2

> <Gold.Protein.RotatedTorsions>
[  496  491  490  487 ] final   79.55 input  -89.99 | X-H torsion

> <Gold.Protein.ActiveResidues>
 MET295  LEU298  THR299  LEU301  ALA302  GLU305  TRP335  MET336  LEU339  MET340 
 GLY342  LEU343  ARG346  PHE356  ILE373  ILE376  PHE377  LEU380  LYS471  GLY472 
 MET473  HIS475  LEU476  LEU477  ASN478  MET479  VAL484  VAL487 

> <Gold.Protein.RotatedAtoms>
   36.7237   33.1037   42.1405 H   0  0  0  0  0  0  0  0  0  0  0  0  # atno 496  bound_to 491 

> <Gold.Score>
     Score     S(PLP)   S(hbond)     S(cho)   S(metal)  DE(clash)   DE(tors)     intcor
     51.77     -51.59       0.00       1.00       0.00       0.00       1.55       0.29

> <Gold.PLP.Fitness>
51.7692

> <Gold.PLP.PLP>
-51.5862

> <Gold.PLP.part.hbond>
0.0000

> <Gold.PLP.part.metal>
0.0000

> <Gold.PLP.part.buried>
-4.2068

> <Gold.PLP.part.nonpolar>
-47.8039

> <Gold.PLP.part.repulsive>
0.2074

> <Gold.PLP.ligand.clash>
0.0000

> <Gold.PLP.ligand.torsion>
1.5531

> <Gold.PLP.Chemscore.Hbond>
0.0000

> <Gold.PLP.Chemscore.CHOScore>
1.0000

> <Gold.PLP.Chemscore.Metal>
0.0000

> <Gold.Chemscore.Hbonds>
donor molecule, donor type, donor heavy atom, donor atom, acceptor molecule, acceptor atom, score
      L1  C    14    23       P1   582  1.00

> <Gold.PLP.Chemscore.Internal.Correction>
0.2892

