#       Name:                EN300-94340_i001
#       Creating user name   aseyller
#       Creation time:       Fri Apr 21 18:12:40 2023


#       File generated by GOLD software.
#

@<TRIPOS>MOLECULE
EN300-94340_i001|benzaldehydes|mol2|464|dock13
    24    26     1
SMALL
USER_CHARGES


@<TRIPOS>ATOM
      1 O1          28.8806  39.4781  36.4526 O.2            1 <1>                0.0000
      2 C2          28.4054  38.7090  37.2658 C.2            1 <1>                0.0000
      3 C3          29.1899  37.6765  37.7950 C.2            1 <1>                0.0000
      4 C4          28.8178  36.7620  38.7864 C.2            1 <1>                0.0000
      5 N5          29.8444  35.9515  39.0007 N.2            1 <1>                0.0000
      6 C6          30.8618  36.2857  38.2064 C.2            1 <1>                0.0000
      7 C7          32.1488  35.7391  38.0587 C.2            1 <1>                0.0000
      8 C8          33.0086  36.2860  37.1526 C.2            1 <1>                0.0000
      9 C9          32.5979  37.3826  36.3834 C.2            1 <1>                0.0000
     10 C10         31.3551  37.8945  36.5409 C.2            1 <1>                0.0000
     11 N11         30.4906  37.3509  37.4372 N.pl3          1 <1>                0.0000
     12 N12         27.5839  36.7124  39.4354 N.pl3          1 <1>                0.0000
     13 C13         27.3117  36.0832  40.6241 C.2            1 <1>                0.0000
     14 C14         26.0059  36.2845  40.8815 C.2            1 <1>                0.0000
     15 N15         25.4890  37.0155  39.8821 N.2            1 <1>                0.0000
     16 C16         26.4243  37.2834  39.0129 C.2            1 <1>                0.0000
     17 H17         27.3796  38.8246  37.5834 H              1 <1>                0.0000
     18 H18         32.4538  34.8938  38.6577 H              1 <1>                0.0000
     19 H19         34.0002  35.8764  37.0288 H              1 <1>                0.0000
     20 H20         33.2743  37.8202  35.6640 H              1 <1>                0.0000
     21 H21         31.0456  38.7402  35.9448 H              1 <1>                0.0000
     22 H22         28.0107  35.5319  41.2354 H              1 <1>                0.0000
     23 H23         25.4671  35.9200  41.7434 H              1 <1>                0.0000
     24 H24         26.2973  37.8563  38.1063 H              1 <1>                0.0000
@<TRIPOS>BOND
    1    1    2 2     
    2    2    3 1     
    3    2   17 1     
    4    3    4 2     
    5    3   11 1     
    6    4    5 1     
    7    4   12 1     
    8    5    6 2     
    9    6    7 1     
   10    6   11 1     
   11    7    8 2     
   12    7   18 1     
   13    8    9 1     
   14    8   19 1     
   15    9   10 2     
   16    9   20 1     
   17   10   11 1     
   18   10   21 1     
   19   12   13 1     
   20   12   16 1     
   21   13   14 2     
   22   13   22 1     
   23   14   15 1     
   24   14   23 1     
   25   15   16 2     
   26   16   24 1     
@<TRIPOS>SUBSTRUCTURE
      1 ****           1
@<TRIPOS>COMMENT
> <Gold.Version>
2022.2.0

> <Gold.Id.Protein>
1qkm|1qkm_protein|mol2

> <Gold.Protein.RotatedTorsions>
[  496  491  490  487 ] final  -60.16 input  -89.99 | X-H torsion

> <Gold.Protein.ActiveResidues>
 MET295  LEU298  THR299  LEU301  ALA302  GLU305  TRP335  MET336  LEU339  MET340 
 GLY342  LEU343  ARG346  PHE356  ILE373  ILE376  PHE377  LEU380  LYS471  GLY472 
 MET473  HIS475  LEU476  LEU477  ASN478  MET479  VAL484  VAL487 

> <Gold.Protein.RotatedAtoms>
   36.4982   34.7322   41.4824 H   0  0  0  0  0  0  0  0  0  0  0  0  # atno 496  bound_to 491 

> <Gold.Score>
     Score     S(PLP)   S(hbond)     S(cho)   S(metal)  DE(clash)   DE(tors)     intcor
     52.98     -50.00       0.00       1.00       0.00       0.00       0.15       0.29

> <Gold.PLP.Fitness>
52.9840

> <Gold.PLP.PLP>
-49.9986

> <Gold.PLP.part.hbond>
0.0000

> <Gold.PLP.part.metal>
0.0000

> <Gold.PLP.part.buried>
-5.0221

> <Gold.PLP.part.nonpolar>
-45.9094

> <Gold.PLP.part.repulsive>
0.1803

> <Gold.PLP.ligand.clash>
0.0000

> <Gold.PLP.ligand.torsion>
0.1519

> <Gold.PLP.Chemscore.Hbond>
0.0000

> <Gold.PLP.Chemscore.CHOScore>
1.0000

> <Gold.PLP.Chemscore.Metal>
0.0000

> <Gold.Chemscore.Hbonds>
donor molecule, donor type, donor heavy atom, donor atom, acceptor molecule, acceptor atom, score
      L1  C    14    23       P1   582  1.00

> <Gold.PLP.Chemscore.Internal.Correction>
0.2892

