#       Name:                EN300-94340_i001
#       Creating user name   aseyller
#       Creation time:       Fri Apr 21 18:12:36 2023


#       File generated by GOLD software.
#

@<TRIPOS>MOLECULE
EN300-94340_i001|benzaldehydes|mol2|464|dock5
    24    26     1
SMALL
USER_CHARGES


@<TRIPOS>ATOM
      1 O1          28.9352  39.1264  36.5016 O.2            1 <1>                0.0000
      2 C2          28.4364  38.3668  37.3097 C.2            1 <1>                0.0000
      3 C3          29.2311  37.4123  37.9570 C.2            1 <1>                0.0000
      4 C4          28.8933  36.6683  39.0927 C.2            1 <1>                0.0000
      5 N5          29.9181  35.8800  39.3844 N.2            1 <1>                0.0000
      6 C6          30.9020  36.0682  38.5046 C.2            1 <1>                0.0000
      7 C7          32.1737  35.4799  38.3869 C.2            1 <1>                0.0000
      8 C8          32.9978  35.8642  37.3707 C.2            1 <1>                0.0000
      9 C9          32.5663  36.8379  36.4604 C.2            1 <1>                0.0000
     10 C10         31.3388  37.3925  36.5912 C.2            1 <1>                0.0000
     11 N11         30.5095  37.0100  37.5973 N.pl3          1 <1>                0.0000
     12 N12         27.6901  36.7433  39.7948 N.pl3          1 <1>                0.0000
     13 C13         26.4840  37.1754  39.3032 C.2            1 <1>                0.0000
     14 C14         25.5970  37.0841  40.3115 C.2            1 <1>                0.0000
     15 N15         26.2366  36.6103  41.3915 N.2            1 <1>                0.0000
     16 C16         27.4888  36.3965  41.0941 C.2            1 <1>                0.0000
     17 H17         27.3814  38.4312  37.5317 H              1 <1>                0.0000
     18 H18         32.4951  34.7306  39.0952 H              1 <1>                0.0000
     19 H19         33.9773  35.4209  37.2685 H              1 <1>                0.0000
     20 H20         33.2144  37.1465  35.6534 H              1 <1>                0.0000
     21 H21         31.0131  38.1427  35.8859 H              1 <1>                0.0000
     22 H22         26.2848  37.5224  38.3001 H              1 <1>                0.0000
     23 H23         24.5509  37.3475  40.2602 H              1 <1>                0.0000
     24 H24         28.2410  36.0150  41.7687 H              1 <1>                0.0000
@<TRIPOS>BOND
    1    1    2 2     
    2    2    3 1     
    3    2   17 1     
    4    3    4 2     
    5    3   11 1     
    6    4    5 1     
    7    4   12 1     
    8    5    6 2     
    9    6    7 1     
   10    6   11 1     
   11    7    8 2     
   12    7   18 1     
   13    8    9 1     
   14    8   19 1     
   15    9   10 2     
   16    9   20 1     
   17   10   11 1     
   18   10   21 1     
   19   12   13 1     
   20   12   16 1     
   21   13   14 2     
   22   13   22 1     
   23   14   15 1     
   24   14   23 1     
   25   15   16 2     
   26   16   24 1     
@<TRIPOS>SUBSTRUCTURE
      1 ****           1
@<TRIPOS>COMMENT
> <Gold.Version>
2022.2.0

> <Gold.Id.Protein>
1qkm|1qkm_protein|mol2

> <Gold.Protein.RotatedTorsions>
[  496  491  490  487 ] final  147.55 input  -89.99 | X-H torsion

> <Gold.Protein.ActiveResidues>
 MET295  LEU298  THR299  LEU301  ALA302  GLU305  TRP335  MET336  LEU339  MET340 
 GLY342  LEU343  ARG346  PHE356  ILE373  ILE376  PHE377  LEU380  LYS471  GLY472 
 MET473  HIS475  LEU476  LEU477  ASN478  MET479  VAL484  VAL487 

> <Gold.Protein.RotatedAtoms>
   37.2521   33.0827   41.2278 H   0  0  0  0  0  0  0  0  0  0  0  0  # atno 496  bound_to 491 

> <Gold.Score>
     Score     S(PLP)   S(hbond)     S(cho)   S(metal)  DE(clash)   DE(tors)     intcor
     54.25     -51.54       0.00       1.00       0.00       0.00       0.29       0.29

> <Gold.PLP.Fitness>
54.2546

> <Gold.PLP.PLP>
-51.5382

> <Gold.PLP.part.hbond>
0.0000

> <Gold.PLP.part.metal>
0.0000

> <Gold.PLP.part.buried>
-5.0939

> <Gold.PLP.part.nonpolar>
-47.9752

> <Gold.PLP.part.repulsive>
0.2703

> <Gold.PLP.ligand.clash>
0.0000

> <Gold.PLP.ligand.torsion>
0.2851

> <Gold.PLP.Chemscore.Hbond>
0.0000

> <Gold.PLP.Chemscore.CHOScore>
0.9976

> <Gold.PLP.Chemscore.Metal>
0.0000

> <Gold.Chemscore.Hbonds>
donor molecule, donor type, donor heavy atom, donor atom, acceptor molecule, acceptor atom, score
      L1  C    14    23       P1  1131  1.00

> <Gold.PLP.Chemscore.Internal.Correction>
0.2937

