#       Name:                EN300-94340_i001
#       Creating user name   aseyller
#       Creation time:       Fri Apr 21 18:12:34 2023


#       File generated by GOLD software.
#

@<TRIPOS>MOLECULE
EN300-94340_i001|benzaldehydes|mol2|464|dock2
    24    26     1
SMALL
USER_CHARGES


@<TRIPOS>ATOM
      1 O1          32.0989  35.0217  38.3034 O.2            1 <1>                0.0000
      2 C2          31.1385  35.5813  38.7967 C.2            1 <1>                0.0000
      3 C3          30.4703  36.5847  38.0839 C.2            1 <1>                0.0000
      4 C4          29.2432  37.1723  38.4105 C.2            1 <1>                0.0000
      5 N5          28.9630  38.0759  37.4822 N.2            1 <1>                0.0000
      6 C6          29.9362  38.1099  36.5716 C.2            1 <1>                0.0000
      7 C7          30.1021  38.8873  35.4118 C.2            1 <1>                0.0000
      8 C8          31.2162  38.7160  34.6445 C.2            1 <1>                0.0000
      9 C9          32.1778  37.7695  35.0222 C.2            1 <1>                0.0000
     10 C10         31.9993  37.0307  36.1419 C.2            1 <1>                0.0000
     11 N11         30.8948  37.2003  36.9150 N.pl3          1 <1>                0.0000
     12 N12         28.4535  36.8615  39.5178 N.pl3          1 <1>                0.0000
     13 C13         28.8989  36.4384  40.7449 C.2            1 <1>                0.0000
     14 C14         27.8089  36.2551  41.5130 C.2            1 <1>                0.0000
     15 N15         26.7248  36.5561  40.7820 N.2            1 <1>                0.0000
     16 C16         27.0970  36.9262  39.5877 C.2            1 <1>                0.0000
     17 H17         30.7982  35.3015  39.7828 H              1 <1>                0.0000
     18 H18         29.3536  39.6135  35.1309 H              1 <1>                0.0000
     19 H19         31.3565  39.3061  33.7509 H              1 <1>                0.0000
     20 H20         33.0624  37.6291  34.4187 H              1 <1>                0.0000
     21 H21         32.7445  36.3027  36.4266 H              1 <1>                0.0000
     22 H22         29.9265  36.2820  41.0378 H              1 <1>                0.0000
     23 H23         27.8072  35.9225  42.5405 H              1 <1>                0.0000
     24 H24         26.4381  37.2265  38.7865 H              1 <1>                0.0000
@<TRIPOS>BOND
    1    1    2 2     
    2    2    3 1     
    3    2   17 1     
    4    3    4 2     
    5    3   11 1     
    6    4    5 1     
    7    4   12 1     
    8    5    6 2     
    9    6    7 1     
   10    6   11 1     
   11    7    8 2     
   12    7   18 1     
   13    8    9 1     
   14    8   19 1     
   15    9   10 2     
   16    9   20 1     
   17   10   11 1     
   18   10   21 1     
   19   12   13 1     
   20   12   16 1     
   21   13   14 2     
   22   13   22 1     
   23   14   15 1     
   24   14   23 1     
   25   15   16 2     
   26   16   24 1     
@<TRIPOS>SUBSTRUCTURE
      1 ****           1
@<TRIPOS>COMMENT
> <Gold.Version>
2022.2.0

> <Gold.Id.Protein>
1qkm|1qkm_protein|mol2

> <Gold.Protein.RotatedTorsions>
[  496  491  490  487 ] final  140.94 input  -89.99 | X-H torsion

> <Gold.Protein.ActiveResidues>
 MET295  LEU298  THR299  LEU301  ALA302  GLU305  TRP335  MET336  LEU339  MET340 
 GLY342  LEU343  ARG346  PHE356  ILE373  ILE376  PHE377  LEU380  LYS471  GLY472 
 MET473  HIS475  LEU476  LEU477  ASN478  MET479  VAL484  VAL487 

> <Gold.Protein.RotatedAtoms>
   37.2194   33.0317   41.3181 H   0  0  0  0  0  0  0  0  0  0  0  0  # atno 496  bound_to 491 

> <Gold.Score>
     Score     S(PLP)   S(hbond)     S(cho)   S(metal)  DE(clash)   DE(tors)     intcor
     54.94     -49.50       0.00       2.00       0.00       0.00       0.43       0.30

> <Gold.PLP.Fitness>
54.9417

> <Gold.PLP.PLP>
-49.5032

> <Gold.PLP.part.hbond>
0.0000

> <Gold.PLP.part.metal>
0.0000

> <Gold.PLP.part.buried>
-4.5975

> <Gold.PLP.part.nonpolar>
-45.8661

> <Gold.PLP.part.repulsive>
0.1675

> <Gold.PLP.ligand.clash>
0.0000

> <Gold.PLP.ligand.torsion>
0.4274

> <Gold.PLP.Chemscore.Hbond>
0.0000

> <Gold.PLP.Chemscore.CHOScore>
1.9985

> <Gold.PLP.Chemscore.Metal>
0.0000

> <Gold.Chemscore.Hbonds>
donor molecule, donor type, donor heavy atom, donor atom, acceptor molecule, acceptor atom, score
      L1  C    13    22       P1   470  1.00
      L1  C    14    23       P1   582  1.00

> <Gold.PLP.Chemscore.Internal.Correction>
0.2980

