#       Name:                EN300-94340_i001
#       Creating user name   aseyller
#       Creation time:       Fri Apr 21 18:12:38 2023


#       File generated by GOLD software.
#

@<TRIPOS>MOLECULE
EN300-94340_i001|benzaldehydes|mol2|464|dock10
    24    26     1
SMALL
USER_CHARGES


@<TRIPOS>ATOM
      1 O1          28.5563  39.7798  36.6973 O.2            1 <1>                0.0000
      2 C2          28.4000  38.7321  37.2945 C.2            1 <1>                0.0000
      3 C3          29.4043  37.7562  37.2712 C.2            1 <1>                0.0000
      4 C4          29.5406  36.6697  38.1423 C.2            1 <1>                0.0000
      5 N5          30.6189  35.9891  37.7808 N.2            1 <1>                0.0000
      6 C6          31.1912  36.5696  36.7258 C.2            1 <1>                0.0000
      7 C7          32.3378  36.2344  35.9842 C.2            1 <1>                0.0000
      8 C8          32.7057  37.0168  34.9298 C.2            1 <1>                0.0000
      9 C9          31.9373  38.1414  34.6012 C.2            1 <1>                0.0000
     10 C10         30.8373  38.4474  35.3278 C.2            1 <1>                0.0000
     11 N11         30.4608  37.6688  36.3758 N.pl3          1 <1>                0.0000
     12 N12         28.6915  36.3581  39.2044 N.pl3          1 <1>                0.0000
     13 C13         29.0554  35.7975  40.4028 C.2            1 <1>                0.0000
     14 C14         27.9305  35.6697  41.1308 C.2            1 <1>                0.0000
     15 N15         26.9045  36.1374  40.4036 N.2            1 <1>                0.0000
     16 C16         27.3472  36.5580  39.2507 C.2            1 <1>                0.0000
     17 H17         27.4886  38.5558  37.8465 H              1 <1>                0.0000
     18 H18         32.9222  35.3651  36.2475 H              1 <1>                0.0000
     19 H19         33.5843  36.7714  34.3516 H              1 <1>                0.0000
     20 H20         32.2234  38.7651  33.7672 H              1 <1>                0.0000
     21 H21         30.2501  39.3159  35.0689 H              1 <1>                0.0000
     22 H22         30.0527  35.5129  40.7039 H              1 <1>                0.0000
     23 H23         27.8649  35.2607  42.1282 H              1 <1>                0.0000
     24 H24         26.7459  36.9862  38.4624 H              1 <1>                0.0000
@<TRIPOS>BOND
    1    1    2 2     
    2    2    3 1     
    3    2   17 1     
    4    3    4 2     
    5    3   11 1     
    6    4    5 1     
    7    4   12 1     
    8    5    6 2     
    9    6    7 1     
   10    6   11 1     
   11    7    8 2     
   12    7   18 1     
   13    8    9 1     
   14    8   19 1     
   15    9   10 2     
   16    9   20 1     
   17   10   11 1     
   18   10   21 1     
   19   12   13 1     
   20   12   16 1     
   21   13   14 2     
   22   13   22 1     
   23   14   15 1     
   24   14   23 1     
   25   15   16 2     
   26   16   24 1     
@<TRIPOS>SUBSTRUCTURE
      1 ****           1
@<TRIPOS>COMMENT
> <Gold.Version>
2022.2.0

> <Gold.Id.Protein>
1qkm|1qkm_protein|mol2

> <Gold.Protein.RotatedTorsions>
[  496  491  490  487 ] final  165.98 input  -89.99 | X-H torsion

> <Gold.Protein.ActiveResidues>
 MET295  LEU298  THR299  LEU301  ALA302  GLU305  TRP335  MET336  LEU339  MET340 
 GLY342  LEU343  ARG346  PHE356  ILE373  ILE376  PHE377  LEU380  LYS471  GLY472 
 MET473  HIS475  LEU476  LEU477  ASN478  MET479  VAL484  VAL487 

> <Gold.Protein.RotatedAtoms>
   37.3097   33.2753   41.0023 H   0  0  0  0  0  0  0  0  0  0  0  0  # atno 496  bound_to 491 

> <Gold.Score>
     Score     S(PLP)   S(hbond)     S(cho)   S(metal)  DE(clash)   DE(tors)     intcor
     53.43     -48.22       0.00       2.00       0.00       0.00       0.54       0.29

> <Gold.PLP.Fitness>
53.4290

> <Gold.PLP.PLP>
-48.2157

> <Gold.PLP.part.hbond>
0.0000

> <Gold.PLP.part.metal>
0.0000

> <Gold.PLP.part.buried>
-3.0336

> <Gold.PLP.part.nonpolar>
-45.3499

> <Gold.PLP.part.repulsive>
0.1125

> <Gold.PLP.ligand.clash>
0.0000

> <Gold.PLP.ligand.torsion>
0.5381

> <Gold.PLP.Chemscore.Hbond>
0.0000

> <Gold.PLP.Chemscore.CHOScore>
1.9986

> <Gold.PLP.Chemscore.Metal>
0.0000

> <Gold.Chemscore.Hbonds>
donor molecule, donor type, donor heavy atom, donor atom, acceptor molecule, acceptor atom, score
      L1  C    13    22       P1   470  1.00
      L1  C    14    23       P1   582  1.00

> <Gold.PLP.Chemscore.Internal.Correction>
0.2937

