#       Name:                EN300-94340_i001
#       Creating user name   aseyller
#       Creation time:       Fri Apr 21 18:12:37 2023


#       File generated by GOLD software.
#

@<TRIPOS>MOLECULE
EN300-94340_i001|benzaldehydes|mol2|464|dock7
    24    26     1
SMALL
USER_CHARGES


@<TRIPOS>ATOM
      1 O1          31.7965  34.1291  38.3360 O.2            1 <1>                0.0000
      2 C2          31.0414  34.9597  38.8036 C.2            1 <1>                0.0000
      3 C3          30.6476  36.0609  38.0330 C.2            1 <1>                0.0000
      4 C4          29.5164  36.8611  38.2275 C.2            1 <1>                0.0000
      5 N5          29.5084  37.7930  37.2850 N.2            1 <1>                0.0000
      6 C6          30.5681  37.6451  36.4896 C.2            1 <1>                0.0000
      7 C7          30.9995  38.3712  35.3654 C.2            1 <1>                0.0000
      8 C8          32.1441  37.9972  34.7256 C.2            1 <1>                0.0000
      9 C9          32.8724  36.8969  35.1968 C.2            1 <1>                0.0000
     10 C10         32.4401  36.2108  36.2802 C.2            1 <1>                0.0000
     11 N11         31.3040  36.5814  36.9268 N.pl3          1 <1>                0.0000
     12 N12         28.5646  36.7054  39.2355 N.pl3          1 <1>                0.0000
     13 C13         27.2241  36.9832  39.1421 C.2            1 <1>                0.0000
     14 C14         26.6811  36.6902  40.3384 C.2            1 <1>                0.0000
     15 N15         27.6570  36.2453  41.1445 N.2            1 <1>                0.0000
     16 C16         28.7884  36.2438  40.4949 C.2            1 <1>                0.0000
     17 H17         30.6709  34.8459  39.8118 H              1 <1>                0.0000
     18 H18         30.4292  39.2174  35.0115 H              1 <1>                0.0000
     19 H19         32.4871  38.5457  33.8608 H              1 <1>                0.0000
     20 H20         33.7798  36.5958  34.6944 H              1 <1>                0.0000
     21 H21         33.0064  35.3635  36.6375 H              1 <1>                0.0000
     22 H22         26.7045  37.3642  38.2754 H              1 <1>                0.0000
     23 H23         25.6396  36.7956  40.6038 H              1 <1>                0.0000
     24 H24         29.7437  35.9349  40.8927 H              1 <1>                0.0000
@<TRIPOS>BOND
    1    1    2 2     
    2    2    3 1     
    3    2   17 1     
    4    3    4 2     
    5    3   11 1     
    6    4    5 1     
    7    4   12 1     
    8    5    6 2     
    9    6    7 1     
   10    6   11 1     
   11    7    8 2     
   12    7   18 1     
   13    8    9 1     
   14    8   19 1     
   15    9   10 2     
   16    9   20 1     
   17   10   11 1     
   18   10   21 1     
   19   12   13 1     
   20   12   16 1     
   21   13   14 2     
   22   13   22 1     
   23   14   15 1     
   24   14   23 1     
   25   15   16 2     
   26   16   24 1     
@<TRIPOS>SUBSTRUCTURE
      1 ****           1
@<TRIPOS>COMMENT
> <Gold.Version>
2022.2.0

> <Gold.Id.Protein>
1qkm|1qkm_protein|mol2

> <Gold.Protein.RotatedTorsions>
[  496  491  490  487 ] final -174.88 input  -89.99 | X-H torsion

> <Gold.Protein.ActiveResidues>
 MET295  LEU298  THR299  LEU301  ALA302  GLU305  TRP335  MET336  LEU339  MET340 
 GLY342  LEU343  ARG346  PHE356  ILE373  ILE376  PHE377  LEU380  LYS471  GLY472 
 MET473  HIS475  LEU476  LEU477  ASN478  MET479  VAL484  VAL487 

> <Gold.Protein.RotatedAtoms>
   37.3129   33.5359   40.8280 H   0  0  0  0  0  0  0  0  0  0  0  0  # atno 496  bound_to 491 

> <Gold.Score>
     Score     S(PLP)   S(hbond)     S(cho)   S(metal)  DE(clash)   DE(tors)     intcor
     52.82     -50.60       0.00       1.00       0.00       0.00       0.53       0.29

> <Gold.PLP.Fitness>
52.8231

> <Gold.PLP.PLP>
-50.5985

> <Gold.PLP.part.hbond>
0.0000

> <Gold.PLP.part.metal>
0.0000

> <Gold.PLP.part.buried>
-5.1624

> <Gold.PLP.part.nonpolar>
-45.7710

> <Gold.PLP.part.repulsive>
0.1684

> <Gold.PLP.ligand.clash>
0.0000

> <Gold.PLP.ligand.torsion>
0.5345

> <Gold.PLP.Chemscore.Hbond>
0.0000

> <Gold.PLP.Chemscore.CHOScore>
1.0000

> <Gold.PLP.Chemscore.Metal>
0.0000

> <Gold.Chemscore.Hbonds>
donor molecule, donor type, donor heavy atom, donor atom, acceptor molecule, acceptor atom, score
      L1  C    16    24       P1   470  1.00

> <Gold.PLP.Chemscore.Internal.Correction>
0.2937

