#       Name:                EN300-94340_i001
#       Creating user name   aseyller
#       Creation time:       Fri Apr 21 18:12:43 2023


#       File generated by GOLD software.
#

@<TRIPOS>MOLECULE
EN300-94340_i001|benzaldehydes|mol2|464|dock19
    24    26     1
SMALL
USER_CHARGES


@<TRIPOS>ATOM
      1 O1          29.8478  39.9260  36.1078 O.2            1 <1>                0.0000
      2 C2          29.5243  39.0474  36.8838 C.2            1 <1>                0.0000
      3 C3          30.3352  37.9161  37.0384 C.2            1 <1>                0.0000
      4 C4          30.1942  36.9057  37.9960 C.2            1 <1>                0.0000
      5 N5          31.1616  36.0208  37.8016 N.2            1 <1>                0.0000
      6 C6          31.9229  36.3969  36.7737 C.2            1 <1>                0.0000
      7 C7          33.0539  35.8049  36.1844 C.2            1 <1>                0.0000
      8 C8          33.6511  36.4142  35.1207 C.2            1 <1>                0.0000
      9 C9          33.1300  37.6192  34.6313 C.2            1 <1>                0.0000
     10 C10         32.0409  38.1732  35.2128 C.2            1 <1>                0.0000
     11 N11         31.4365  37.5686  36.2689 N.pl3          1 <1>                0.0000
     12 N12         29.2093  36.8413  38.9819 N.pl3          1 <1>                0.0000
     13 C13         29.4026  36.5629  40.3116 C.2            1 <1>                0.0000
     14 C14         28.1918  36.6033  40.8982 C.2            1 <1>                0.0000
     15 N15         27.2800  36.8977  39.9589 N.2            1 <1>                0.0000
     16 C16         27.8766  37.0485  38.8085 C.2            1 <1>                0.0000
     17 H17         28.6137  39.1415  37.4570 H              1 <1>                0.0000
     18 H18         33.4464  34.8759  36.5709 H              1 <1>                0.0000
     19 H19         34.5206  35.9708  34.6585 H              1 <1>                0.0000
     20 H20         33.5985  38.1067  33.7891 H              1 <1>                0.0000
     21 H21         31.6450  39.1024  34.8304 H              1 <1>                0.0000
     22 H22         30.3451  36.3515  40.7946 H              1 <1>                0.0000
     23 H23         27.9891  36.4283  41.9444 H              1 <1>                0.0000
     24 H24         27.3924  37.2901  37.8739 H              1 <1>                0.0000
@<TRIPOS>BOND
    1    1    2 2     
    2    2    3 1     
    3    2   17 1     
    4    3    4 2     
    5    3   11 1     
    6    4    5 1     
    7    4   12 1     
    8    5    6 2     
    9    6    7 1     
   10    6   11 1     
   11    7    8 2     
   12    7   18 1     
   13    8    9 1     
   14    8   19 1     
   15    9   10 2     
   16    9   20 1     
   17   10   11 1     
   18   10   21 1     
   19   12   13 1     
   20   12   16 1     
   21   13   14 2     
   22   13   22 1     
   23   14   15 1     
   24   14   23 1     
   25   15   16 2     
   26   16   24 1     
@<TRIPOS>SUBSTRUCTURE
      1 ****           1
@<TRIPOS>COMMENT
> <Gold.Version>
2022.2.0

> <Gold.Id.Protein>
1qkm|1qkm_protein|mol2

> <Gold.Protein.RotatedTorsions>
[  496  491  490  487 ] final -170.14 input  -89.99 | X-H torsion

> <Gold.Protein.ActiveResidues>
 MET295  LEU298  THR299  LEU301  ALA302  GLU305  TRP335  MET336  LEU339  MET340 
 GLY342  LEU343  ARG346  PHE356  ILE373  ILE376  PHE377  LEU380  LYS471  GLY472 
 MET473  HIS475  LEU476  LEU477  ASN478  MET479  VAL484  VAL487 

> <Gold.Protein.RotatedAtoms>
   37.3047   33.6068   40.7966 H   0  0  0  0  0  0  0  0  0  0  0  0  # atno 496  bound_to 491 

> <Gold.Score>
     Score     S(PLP)   S(hbond)     S(cho)   S(metal)  DE(clash)   DE(tors)     intcor
     51.20     -49.52       0.00       1.00       0.00       0.00       0.81       0.29

> <Gold.PLP.Fitness>
51.1957

> <Gold.PLP.PLP>
-49.5197

> <Gold.PLP.part.hbond>
0.0000

> <Gold.PLP.part.metal>
0.0000

> <Gold.PLP.part.buried>
-2.5320

> <Gold.PLP.part.nonpolar>
-47.8344

> <Gold.PLP.part.repulsive>
0.0499

> <Gold.PLP.ligand.clash>
0.0000

> <Gold.PLP.ligand.torsion>
0.8066

> <Gold.PLP.Chemscore.Hbond>
0.0000

> <Gold.PLP.Chemscore.CHOScore>
1.0000

> <Gold.PLP.Chemscore.Metal>
0.0000

> <Gold.Chemscore.Hbonds>
donor molecule, donor type, donor heavy atom, donor atom, acceptor molecule, acceptor atom, score
      L1  C    13    22       P1   470  1.00

> <Gold.PLP.Chemscore.Internal.Correction>
0.2892

