#       Name:                EN300-1589650_i001
#       Creating user name   fsindt
#       Creation time:       Tue Feb 28 16:43:08 2023


#       File generated by GOLD software.
#

@<TRIPOS>MOLECULE
EN300-1589650_i001|acide_1|mol2|4847|dock12
    31    30     1
SMALL
USER_CHARGES


@<TRIPOS>ATOM
      1 C1          -0.4717 -10.1707  11.0693 C.3            1 <1>                0.0000
      2 C2          -1.5284 -10.8714  10.2131 C.3            1 <1>                0.0000
      3 C3          -2.7904 -10.0084  10.1530 C.3            1 <1>                0.0000
      4 C4          -0.9837 -11.0777   8.7982 C.3            1 <1>                0.0000
      5 O5          -1.8506 -12.1597  10.8003 O.3            1 <1>                0.0000
      6 C6          -0.8236 -12.9972  11.0379 C.2            1 <1>                0.0000
      7 O7           0.2705 -12.7673  10.5618 O.2            1 <1>                0.0000
      8 N8          -1.0090 -14.0906  11.8038 N.am           1 <1>                0.0000
      9 C9           0.1085 -15.0019  12.0624 C.3            1 <1>                0.0000
     10 C10          0.0480 -15.4844  13.5131 C.3            1 <1>                0.0000
     11 C11          0.3191 -16.9894  13.5616 C.3            1 <1>                0.0000
     12 O12         -0.4537 -17.5790  14.6091 O.3            1 <1>                0.0000
     13 C13          1.7841 -17.2277  13.8230 C.2            1 <1>                0.0000
     14 O14          2.6194 -16.8035  13.0428 O.co2          1 <1>                0.0000
     15 O15          2.1338 -17.8445  14.8149 O.co2          1 <1>               -1.0000
     16 H16         -0.8596 -10.0237  12.0772 H              1 <1>                0.0000
     17 H17          0.4274 -10.7855  11.1120 H              1 <1>                0.0000
     18 H18         -0.2297  -9.2036  10.6285 H              1 <1>                0.0000
     19 H19         -2.5485  -9.0413   9.7122 H              1 <1>                0.0000
     20 H20         -3.5432 -10.5076   9.5430 H              1 <1>                0.0000
     21 H21         -3.1784  -9.8615  11.1609 H              1 <1>                0.0000
     22 H22         -0.0847 -11.6925   8.8410 H              1 <1>                0.0000
     23 H23         -1.7367 -11.5769   8.1883 H              1 <1>                0.0000
     24 H24         -0.7418 -10.1105   8.3575 H              1 <1>                0.0000
     25 H25          0.0417 -15.8583  11.3915 H              1 <1>                0.0000
     26 H26          1.0501 -14.4797  11.8922 H              1 <1>                0.0000
     27 H27          0.8007 -14.9604  14.1020 H              1 <1>                0.0000
     28 H28         -0.9412 -15.2800  13.9229 H              1 <1>                0.0000
     29 H29          0.0422 -17.4394  12.6083 H              1 <1>                0.0000
     30 H30         -1.8824 -14.2741  12.1839 H              1 <1>                0.0000
     31 H31          0.0415 -18.1988  15.1622 H              1 <1>                0.0000
@<TRIPOS>BOND
    1    1    2 1     
    2    1   16 1     
    3    1   17 1     
    4    1   18 1     
    5    2    3 1     
    6    2    4 1     
    7    2    5 1     
    8    3   19 1     
    9    3   20 1     
   10    3   21 1     
   11    4   22 1     
   12    4   23 1     
   13    4   24 1     
   14    5    6 1     
   15    6    7 2     
   16    6    8 am    
   17    8    9 1     
   18    8   30 1     
   19    9   10 1     
   20    9   25 1     
   21    9   26 1     
   22   10   11 1     
   23   10   27 1     
   24   10   28 1     
   25   11   12 1     
   26   11   13 1     
   27   11   29 1     
   28   12   31 1     
   29   13   14 ar    
   30   13   15 ar    
@<TRIPOS>SUBSTRUCTURE
      1 ****           1
@<TRIPOS>SET
DONOR_HYDROGENS      STATIC     ATOMS    <user>   **** ""
2 30 31
ATOM$RED        STATIC     ATOMS    COLORGROUP SYSTEM
2 30 31
@<TRIPOS>COMMENT
> <Gold.Version>
2022.2.0

> <Gold.Id.Protein>
3pbl|protein|mol2

> <Gold.Protein.RotatedTorsions>
[ 1303 1298 1297 1294 ] final -124.40 input  179.99 | X-H torsion
[ 2461 2456 2455 2452 ] final  148.50 input   30.03 | X-H torsion
[ 2515 2510 2509 2506 ] final  135.78 input  -89.99 | X-H torsion
[ 3721 3712 3711 3710 ] final   -3.40 input -179.91 | X-H torsion
[ 3841 3832 3831 3830 ] final  -90.99 input -179.91 | X-H torsion
[ 3767 3762 3761 3758 ] final  -61.73 input  -89.99 | X-H torsion
[ 2472 2467 2466 2463 ] final  -70.41 input  -89.97 | X-H torsion

> <Gold.Protein.ActiveResidues>
 VAL82   VAL86   LEU89   PHE106  VAL107  ASP110  VAL111  MET112  CYS114  THR115 
 CYS181  SER182  ILE183  PHE188  VAL189  ILE190  SER192  SER193  SER196  TRP342 
 PHE345  PHE346  HIS349  VAL350  TYR365  THR369  GLY372  TYR373 

> <Gold.Protein.RotatedAtoms>
    4.2927   -8.4756    4.1353 H   0  0  0  0  0  0  0  0  0  0  0  0  # atno 1303 bound_to 1298
    1.8869   -8.9672    8.3040 H   0  0  0  0  0  0  0  0  0  0  0  0  # atno 2461 bound_to 2456
   -3.8143   -5.2461    9.0952 H   0  0  0  0  0  0  0  0  0  0  0  0  # atno 2472 bound_to 2467
    2.0835   -8.4196    6.0963 H   0  0  0  0  0  0  0  0  0  0  0  0  # atno 2515 bound_to 2510
   -2.4948  -17.9357   14.2887 H   0  0  0  0  0  0  0  0  0  0  0  0  # atno 3721 bound_to 3712
   -5.4543  -22.0476   10.8337 H   0  0  0  0  0  0  0  0  0  0  0  0  # atno 3767 bound_to 3762
    1.8628  -19.6115    8.6968 H   0  0  0  0  0  0  0  0  0  0  0  0  # atno 3841 bound_to 3832
    4.7035   -9.8320    4.9464 LP  0  0  0  0  0  0  0  0  0  0  0  0  # atno 4297 bound_to 1298
    3.3659   -9.8141    4.0099 LP  0  0  0  0  0  0  0  0  0  0  0  0  # atno 4298 bound_to 1298
    1.4915   -7.9173    7.1171 LP  0  0  0  0  0  0  0  0  0  0  0  0  # atno 4299 bound_to 2456
    0.3595   -8.9237    7.7273 LP  0  0  0  0  0  0  0  0  0  0  0  0  # atno 4300 bound_to 2456
    2.4310   -7.4924    4.7982 LP  0  0  0  0  0  0  0  0  0  0  0  0  # atno 4301 bound_to 2510
    2.7824   -9.0870    4.7803 LP  0  0  0  0  0  0  0  0  0  0  0  0  # atno 4302 bound_to 2510
   -3.4605  -16.6585   14.4076 LP  0  0  0  0  0  0  0  0  0  0  0  0  # atno 4306 bound_to 3712
   -3.1869  -17.3607   12.9589 LP  0  0  0  0  0  0  0  0  0  0  0  0  # atno 4307 bound_to 3712
    3.1226  -20.5803    8.4724 LP  0  0  0  0  0  0  0  0  0  0  0  0  # atno 4314 bound_to 3832
    1.9550  -20.9708    9.5451 LP  0  0  0  0  0  0  0  0  0  0  0  0  # atno 4315 bound_to 3832
   -4.0798  -22.5545   11.5555 LP  0  0  0  0  0  0  0  0  0  0  0  0  # atno 4318 bound_to 3762
   -4.5935  -23.2728   10.1819 LP  0  0  0  0  0  0  0  0  0  0  0  0  # atno 4319 bound_to 3762
   -5.4295   -5.3440    8.8760 LP  0  0  0  0  0  0  0  0  0  0  0  0  # atno 4320 bound_to 2467
   -4.4729   -4.8034    7.6680 LP  0  0  0  0  0  0  0  0  0  0  0  0  # atno 4321 bound_to 2467

> <Gold.Score>
     Score     S(PLP)   S(hbond)     S(cho)   S(metal)  DE(clash)   DE(tors)     intcor
     39.82     -39.05       0.88       0.00       0.00       0.24       1.08       0.53

> <Gold.PLP.Fitness>
39.8208

> <Gold.PLP.PLP>
-39.0481

> <Gold.PLP.part.hbond>
-1.0000

> <Gold.PLP.part.metal>
0.0000

> <Gold.PLP.part.buried>
-3.6078

> <Gold.PLP.part.nonpolar>
-35.8896

> <Gold.PLP.part.repulsive>
0.2968

> <Gold.PLP.ligand.clash>
0.2406

> <Gold.PLP.ligand.torsion>
1.0793

> <Gold.PLP.Chemscore.Hbond>
0.8800

> <Gold.PLP.Chemscore.CHOScore>
0.0000

> <Gold.PLP.Chemscore.Metal>
0.0000

> <Gold.Chemscore.Hbonds>
donor molecule, donor type, donor heavy atom, donor atom, acceptor molecule, acceptor atom, score
      P1  H  3712  3721       L1    12  0.88

> <Gold.PLP.Chemscore.Internal.Correction>
0.5318

