#       Name:                EN300-1589650_i001
#       Creating user name   fsindt
#       Creation time:       Tue Feb 28 16:43:04 2023


#       File generated by GOLD software.
#

@<TRIPOS>MOLECULE
EN300-1589650_i001|acide_1|mol2|4847|dock10
    31    30     1
SMALL
USER_CHARGES


@<TRIPOS>ATOM
      1 C1          -0.9964  -9.8621  11.1185 C.3            1 <1>                0.0000
      2 C2          -1.8805 -10.6337  10.1368 C.3            1 <1>                0.0000
      3 C3          -3.3016 -10.7277  10.6957 C.3            1 <1>                0.0000
      4 C4          -1.9082  -9.9032   8.7928 C.3            1 <1>                0.0000
      5 O5          -1.3444 -11.9702   9.9503 O.3            1 <1>                0.0000
      6 C6          -1.1133 -12.6965  11.0601 C.2            1 <1>                0.0000
      7 O7          -1.6015 -12.3582  12.1202 O.2            1 <1>                0.0000
      8 N8          -0.3405 -13.7988  10.9953 N.am           1 <1>                0.0000
      9 C9          -0.0891 -14.5891  12.2030 C.3            1 <1>                0.0000
     10 C10          0.7331 -15.8274  11.8401 C.3            1 <1>                0.0000
     11 C11          1.6639 -16.1799  13.0022 C.3            1 <1>                0.0000
     12 O12          2.5632 -17.2133  12.5955 O.3            1 <1>                0.0000
     13 C13          0.8456 -16.6585  14.1737 C.2            1 <1>                0.0000
     14 O14          1.0366 -17.7699  14.6373 O.co2          1 <1>                0.0000
     15 O15         -0.0073 -15.9342  14.6580 O.co2          1 <1>               -1.0000
     16 H16         -0.9766 -10.3825  12.0761 H              1 <1>                0.0000
     17 H17          0.0161  -9.7951  10.7204 H              1 <1>                0.0000
     18 H18         -1.3987  -8.8588  11.2586 H              1 <1>                0.0000
     19 H19         -3.7041  -9.7244  10.8357 H              1 <1>                0.0000
     20 H20         -3.9315 -11.2774   9.9963 H              1 <1>                0.0000
     21 H21         -3.2819 -11.2481  11.6532 H              1 <1>                0.0000
     22 H22         -0.8957  -9.8362   8.3946 H              1 <1>                0.0000
     23 H23         -2.5381 -10.4529   8.0934 H              1 <1>                0.0000
     24 H24         -2.3106  -8.8999   8.9328 H              1 <1>                0.0000
     25 H25          0.4620 -13.9855  12.9241 H              1 <1>                0.0000
     26 H26         -1.0390 -14.8987  12.6390 H              1 <1>                0.0000
     27 H27          0.0627 -16.6643  11.6448 H              1 <1>                0.0000
     28 H28          1.3263 -15.6213  10.9491 H              1 <1>                0.0000
     29 H29          2.2328 -15.2968  13.2929 H              1 <1>                0.0000
     30 H30          0.0491 -14.0689  10.1491 H              1 <1>                0.0000
     31 H31          2.5862 -17.3612  11.6401 H              1 <1>                0.0000
@<TRIPOS>BOND
    1    1    2 1     
    2    1   16 1     
    3    1   17 1     
    4    1   18 1     
    5    2    3 1     
    6    2    4 1     
    7    2    5 1     
    8    3   19 1     
    9    3   20 1     
   10    3   21 1     
   11    4   22 1     
   12    4   23 1     
   13    4   24 1     
   14    5    6 1     
   15    6    7 2     
   16    6    8 am    
   17    8    9 1     
   18    8   30 1     
   19    9   10 1     
   20    9   25 1     
   21    9   26 1     
   22   10   11 1     
   23   10   27 1     
   24   10   28 1     
   25   11   12 1     
   26   11   13 1     
   27   11   29 1     
   28   12   31 1     
   29   13   14 ar    
   30   13   15 ar    
@<TRIPOS>SUBSTRUCTURE
      1 ****           1
@<TRIPOS>SET
DONOR_HYDROGENS      STATIC     ATOMS    <user>   **** ""
2 30 31
ATOM$RED        STATIC     ATOMS    COLORGROUP SYSTEM
2 30 31
@<TRIPOS>COMMENT
> <Gold.Version>
2022.2.0

> <Gold.Id.Protein>
3pbl|protein|mol2

> <Gold.Protein.RotatedTorsions>
[ 1303 1298 1297 1294 ] final -100.97 input  179.99 | X-H torsion
[ 2461 2456 2455 2452 ] final -118.94 input   30.03 | X-H torsion
[ 2515 2510 2509 2506 ] final   96.75 input  -89.99 | X-H torsion
[ 3721 3712 3711 3710 ] final -123.80 input -179.91 | X-H torsion
[ 3841 3832 3831 3830 ] final  140.26 input -179.91 | X-H torsion
[ 3767 3762 3761 3758 ] final -166.22 input  -89.99 | X-H torsion
[ 2472 2467 2466 2463 ] final -118.38 input  -89.97 | X-H torsion

> <Gold.Protein.ActiveResidues>
 VAL82   VAL86   LEU89   PHE106  VAL107  ASP110  VAL111  MET112  CYS114  THR115 
 CYS181  SER182  ILE183  PHE188  VAL189  ILE190  SER192  SER193  SER196  TRP342 
 PHE345  PHE346  HIS349  VAL350  TYR365  THR369  GLY372  TYR373 

> <Gold.Protein.RotatedAtoms>
    3.9715   -8.5456    3.9392 H   0  0  0  0  0  0  0  0  0  0  0  0  # atno 1303 bound_to 1298
    0.5641   -9.1670    8.0418 H   0  0  0  0  0  0  0  0  0  0  0  0  # atno 2461 bound_to 2456
   -4.4750   -5.4401    9.4318 H   0  0  0  0  0  0  0  0  0  0  0  0  # atno 2472 bound_to 2467
    2.0336   -7.8208    5.9084 H   0  0  0  0  0  0  0  0  0  0  0  0  # atno 2515 bound_to 2510
   -3.2367  -16.6301   14.3579 H   0  0  0  0  0  0  0  0  0  0  0  0  # atno 3721 bound_to 3712
   -4.2352  -22.3675   11.6305 H   0  0  0  0  0  0  0  0  0  0  0  0  # atno 3767 bound_to 3762
    3.1333  -20.5182    8.7219 H   0  0  0  0  0  0  0  0  0  0  0  0  # atno 3841 bound_to 3832
    4.8684   -9.4869    4.9271 LP  0  0  0  0  0  0  0  0  0  0  0  0  # atno 4297 bound_to 1298
    3.5224  -10.0892    4.2255 LP  0  0  0  0  0  0  0  0  0  0  0  0  # atno 4298 bound_to 1298
    2.1158   -8.6585    8.0754 LP  0  0  0  0  0  0  0  0  0  0  0  0  # atno 4299 bound_to 2456
    1.0577   -7.9829    7.0311 LP  0  0  0  0  0  0  0  0  0  0  0  0  # atno 4300 bound_to 2456
    2.6855   -7.9227    4.4149 LP  0  0  0  0  0  0  0  0  0  0  0  0  # atno 4301 bound_to 2510
    2.5778   -9.2559    5.3517 LP  0  0  0  0  0  0  0  0  0  0  0  0  # atno 4302 bound_to 2510
   -3.1592  -17.4095   12.9563 LP  0  0  0  0  0  0  0  0  0  0  0  0  # atno 4306 bound_to 3712
   -2.6316  -18.1170   14.3303 LP  0  0  0  0  0  0  0  0  0  0  0  0  # atno 4307 bound_to 3712
    1.7959  -20.8573    9.5420 LP  0  0  0  0  0  0  0  0  0  0  0  0  # atno 4314 bound_to 3832
    1.8141  -19.6464    8.4465 LP  0  0  0  0  0  0  0  0  0  0  0  0  # atno 4315 bound_to 3832
   -4.3854  -23.3274   10.3179 LP  0  0  0  0  0  0  0  0  0  0  0  0  # atno 4318 bound_to 3762
   -5.5067  -22.1801   10.6230 LP  0  0  0  0  0  0  0  0  0  0  0  0  # atno 4319 bound_to 3762
   -5.4287   -5.0841    8.1550 LP  0  0  0  0  0  0  0  0  0  0  0  0  # atno 4320 bound_to 2467
   -3.8132   -4.8694    8.0524 LP  0  0  0  0  0  0  0  0  0  0  0  0  # atno 4321 bound_to 2467

> <Gold.Score>
     Score     S(PLP)   S(hbond)     S(cho)   S(metal)  DE(clash)   DE(tors)     intcor
     47.09     -41.56       2.00       0.00       0.00       0.00       0.50       0.53

> <Gold.PLP.Fitness>
47.0917

> <Gold.PLP.PLP>
-41.5613

> <Gold.PLP.part.hbond>
-3.0000

> <Gold.PLP.part.metal>
0.0000

> <Gold.PLP.part.buried>
-4.4365

> <Gold.PLP.part.nonpolar>
-35.0275

> <Gold.PLP.part.repulsive>
0.2534

> <Gold.PLP.ligand.clash>
0.0000

> <Gold.PLP.ligand.torsion>
0.5007

> <Gold.PLP.Chemscore.Hbond>
2.0000

> <Gold.PLP.Chemscore.CHOScore>
0.0000

> <Gold.PLP.Chemscore.Metal>
0.0000

> <Gold.Chemscore.Hbonds>
donor molecule, donor type, donor heavy atom, donor atom, acceptor molecule, acceptor atom, score
      L1  H    12    31       P1  1227  1.00
      P1  H  2305  2313       L1    15  1.00

> <Gold.PLP.Chemscore.Internal.Correction>
0.5318

