#       Name:                EN300-1589650_i001
#       Creating user name   fsindt
#       Creation time:       Tue Feb 28 16:42:58 2023


#       File generated by GOLD software.
#

@<TRIPOS>MOLECULE
EN300-1589650_i001|acide_1|mol2|4847|dock7
    31    30     1
SMALL
USER_CHARGES


@<TRIPOS>ATOM
      1 C1          -0.6496 -10.1188  10.9568 C.3            1 <1>                0.0000
      2 C2          -1.8193 -10.9719  10.4624 C.3            1 <1>                0.0000
      3 C3          -3.1384 -10.2758  10.8036 C.3            1 <1>                0.0000
      4 C4          -1.7147 -11.1517   8.9466 C.3            1 <1>                0.0000
      5 O5          -1.7771 -12.2719  11.1079 O.3            1 <1>                0.0000
      6 C6          -0.6977 -13.0395  10.8664 C.2            1 <1>                0.0000
      7 O7           0.2114 -12.6117  10.1829 O.2            1 <1>                0.0000
      8 N8          -0.6255 -14.2823  11.3827 N.am           1 <1>                0.0000
      9 C9           0.5491 -15.1176  11.1199 C.3            1 <1>                0.0000
     10 C10          1.1675 -15.5602  12.4475 C.3            1 <1>                0.0000
     11 C11          0.0862 -16.1873  13.3298 C.3            1 <1>                0.0000
     12 O12          0.4824 -16.1046  14.7002 O.3            1 <1>                0.0000
     13 C13         -0.0986 -17.6331  12.9466 C.2            1 <1>                0.0000
     14 O14         -1.1774 -18.0206  12.5311 O.co2          1 <1>                0.0000
     15 O15          0.8308 -18.4152  13.0521 O.co2          1 <1>               -1.0000
     16 H16         -0.7241  -9.9907  12.0367 H              1 <1>                0.0000
     17 H17          0.2901 -10.6147  10.7137 H              1 <1>                0.0000
     18 H18         -0.6813  -9.1429  10.4723 H              1 <1>                0.0000
     19 H19         -3.1701  -9.2999  10.3190 H              1 <1>                0.0000
     20 H20         -3.9717 -10.8836  10.4514 H              1 <1>                0.0000
     21 H21         -3.2129 -10.1478  11.8835 H              1 <1>                0.0000
     22 H22         -0.7750 -11.6476   8.7034 H              1 <1>                0.0000
     23 H23         -2.5482 -11.7595   8.5944 H              1 <1>                0.0000
     24 H24         -1.7464 -10.1757   8.4620 H              1 <1>                0.0000
     25 H25          0.2498 -15.9957  10.5478 H              1 <1>                0.0000
     26 H26          1.2818 -14.5455  10.5506 H              1 <1>                0.0000
     27 H27          1.9512 -16.2933  12.2568 H              1 <1>                0.0000
     28 H28          1.5946 -14.6955  12.9555 H              1 <1>                0.0000
     29 H29         -0.8527 -15.6515  13.1900 H              1 <1>                0.0000
     30 H30         -1.3511 -14.6238  11.9284 H              1 <1>                0.0000
     31 H31          0.3184 -16.9121  15.2065 H              1 <1>                0.0000
@<TRIPOS>BOND
    1    1    2 1     
    2    1   16 1     
    3    1   17 1     
    4    1   18 1     
    5    2    3 1     
    6    2    4 1     
    7    2    5 1     
    8    3   19 1     
    9    3   20 1     
   10    3   21 1     
   11    4   22 1     
   12    4   23 1     
   13    4   24 1     
   14    5    6 1     
   15    6    7 2     
   16    6    8 am    
   17    8    9 1     
   18    8   30 1     
   19    9   10 1     
   20    9   25 1     
   21    9   26 1     
   22   10   11 1     
   23   10   27 1     
   24   10   28 1     
   25   11   12 1     
   26   11   13 1     
   27   11   29 1     
   28   12   31 1     
   29   13   14 ar    
   30   13   15 ar    
@<TRIPOS>SUBSTRUCTURE
      1 ****           1
@<TRIPOS>SET
DONOR_HYDROGENS      STATIC     ATOMS    <user>   **** ""
2 30 31
ATOM$RED        STATIC     ATOMS    COLORGROUP SYSTEM
2 30 31
@<TRIPOS>COMMENT
> <Gold.Version>
2022.2.0

> <Gold.Id.Protein>
3pbl|protein|mol2

> <Gold.Protein.RotatedTorsions>
[ 1303 1298 1297 1294 ] final  -73.45 input  179.99 | X-H torsion
[ 2461 2456 2455 2452 ] final  -56.75 input   30.03 | X-H torsion
[ 2515 2510 2509 2506 ] final  150.97 input  -89.99 | X-H torsion
[ 3721 3712 3711 3710 ] final   48.19 input -179.91 | X-H torsion
[ 3841 3832 3831 3830 ] final  -30.13 input -179.91 | X-H torsion
[ 3767 3762 3761 3758 ] final -123.13 input  -89.99 | X-H torsion
[ 2472 2467 2466 2463 ] final  173.55 input  -89.97 | X-H torsion

> <Gold.Protein.ActiveResidues>
 VAL82   VAL86   LEU89   PHE106  VAL107  ASP110  VAL111  MET112  CYS114  THR115 
 CYS181  SER182  ILE183  PHE188  VAL189  ILE190  SER192  SER193  SER196  TRP342 
 PHE345  PHE346  HIS349  VAL350  TYR365  THR369  GLY372  TYR373 

> <Gold.Protein.RotatedAtoms>
    3.6294   -8.7999    3.8002 H   0  0  0  0  0  0  0  0  0  0  0  0  # atno 1303 bound_to 1298
    0.3873   -8.5210    7.3347 H   0  0  0  0  0  0  0  0  0  0  0  0  # atno 2461 bound_to 2456
   -5.4012   -5.3618    8.9319 H   0  0  0  0  0  0  0  0  0  0  0  0  # atno 2472 bound_to 2467
    2.1488   -8.6578    6.0632 H   0  0  0  0  0  0  0  0  0  0  0  0  # atno 2515 bound_to 2510
   -2.5362  -17.9800   13.5372 H   0  0  0  0  0  0  0  0  0  0  0  0  # atno 3721 bound_to 3712
   -4.8053  -21.9842   11.5421 H   0  0  0  0  0  0  0  0  0  0  0  0  # atno 3767 bound_to 3762
    1.5707  -20.1294    9.3413 H   0  0  0  0  0  0  0  0  0  0  0  0  # atno 3841 bound_to 3832
    4.9037   -9.0623    4.7869 LP  0  0  0  0  0  0  0  0  0  0  0  0  # atno 4297 bound_to 1298
    3.8293  -10.2593    4.5048 LP  0  0  0  0  0  0  0  0  0  0  0  0  # atno 4298 bound_to 1298
    1.3999   -9.2333    8.3998 LP  0  0  0  0  0  0  0  0  0  0  0  0  # atno 4299 bound_to 2456
    1.9503   -8.0538    7.4136 LP  0  0  0  0  0  0  0  0  0  0  0  0  # atno 4300 bound_to 2456
    2.3253   -7.4208    5.0123 LP  0  0  0  0  0  0  0  0  0  0  0  0  # atno 4301 bound_to 2510
    2.8228   -8.9204    4.5994 LP  0  0  0  0  0  0  0  0  0  0  0  0  # atno 4302 bound_to 2510
   -3.0822  -17.2487   14.8582 LP  0  0  0  0  0  0  0  0  0  0  0  0  # atno 4306 bound_to 3712
   -3.5173  -16.7193   13.3759 LP  0  0  0  0  0  0  0  0  0  0  0  0  # atno 4307 bound_to 3712
    2.5926  -19.8401    8.1379 LP  0  0  0  0  0  0  0  0  0  0  0  0  # atno 4314 bound_to 3832
    2.8223  -21.1127    9.1351 LP  0  0  0  0  0  0  0  0  0  0  0  0  # atno 4315 bound_to 3832
   -3.9714  -23.2120   10.8609 LP  0  0  0  0  0  0  0  0  0  0  0  0  # atno 4318 bound_to 3762
   -5.3507  -22.6785   10.1683 LP  0  0  0  0  0  0  0  0  0  0  0  0  # atno 4319 bound_to 3762
   -4.5377   -4.8082    7.6614 LP  0  0  0  0  0  0  0  0  0  0  0  0  # atno 4320 bound_to 2467
   -3.7781   -5.2236    9.0459 LP  0  0  0  0  0  0  0  0  0  0  0  0  # atno 4321 bound_to 2467

> <Gold.Score>
     Score     S(PLP)   S(hbond)     S(cho)   S(metal)  DE(clash)   DE(tors)     intcor
     42.38     -37.73       2.00       0.00       0.00       1.32       0.29       0.54

> <Gold.PLP.Fitness>
42.3809

> <Gold.PLP.PLP>
-37.7313

> <Gold.PLP.part.hbond>
-2.0000

> <Gold.PLP.part.metal>
0.0000

> <Gold.PLP.part.buried>
-4.5504

> <Gold.PLP.part.nonpolar>
-32.1019

> <Gold.PLP.part.repulsive>
0.1861

> <Gold.PLP.ligand.clash>
1.3205

> <Gold.PLP.ligand.torsion>
0.2857

> <Gold.PLP.Chemscore.Hbond>
2.0000

> <Gold.PLP.Chemscore.CHOScore>
0.0000

> <Gold.PLP.Chemscore.Metal>
0.0000

> <Gold.Chemscore.Hbonds>
donor molecule, donor type, donor heavy atom, donor atom, acceptor molecule, acceptor atom, score
      P1  H  2305  2313       L1    12  1.00
      P1  H  3712  3721       L1    14  1.00

> <Gold.PLP.Chemscore.Internal.Correction>
0.5415

