#       Name:                EN300-1589650_i001
#       Creating user name   fsindt
#       Creation time:       Tue Feb 28 16:42:57 2023


#       File generated by GOLD software.
#

@<TRIPOS>MOLECULE
EN300-1589650_i001|acide_1|mol2|4847|dock6
    31    30     1
SMALL
USER_CHARGES


@<TRIPOS>ATOM
      1 C1           1.5503 -13.0321   6.6553 C.3            1 <1>                0.0000
      2 C2           0.7119 -13.2264   7.9202 C.3            1 <1>                0.0000
      3 C3           0.5846 -11.8920   8.6578 C.3            1 <1>                0.0000
      4 C4          -0.6802 -13.7321   7.5367 C.3            1 <1>                0.0000
      5 O5           1.3584 -14.1975   8.7848 O.3            1 <1>                0.0000
      6 C6           0.6817 -14.5849   9.8823 C.2            1 <1>                0.0000
      7 O7          -0.2914 -13.9564  10.2494 O.2            1 <1>                0.0000
      8 N8           1.0836 -15.6696  10.5739 N.am           1 <1>                0.0000
      9 C9           0.3472 -16.0910  11.7683 C.3            1 <1>                0.0000
     10 C10         -0.4006 -17.3929  11.4733 C.3            1 <1>                0.0000
     11 C11          0.3884 -18.5741  12.0416 C.3            1 <1>                0.0000
     12 O12          1.3388 -19.0222  11.0732 O.3            1 <1>                0.0000
     13 C13         -0.5591 -19.6982  12.3730 C.2            1 <1>                0.0000
     14 O14         -0.4377 -20.7798  11.8236 O.co2          1 <1>                0.0000
     15 O15         -1.4470 -19.5260  13.1906 O.co2          1 <1>               -1.0000
     16 H16          2.5422 -12.6718   6.9285 H              1 <1>                0.0000
     17 H17          1.6410 -13.9827   6.1298 H              1 <1>                0.0000
     18 H18          1.0651 -12.3030   6.0062 H              1 <1>                0.0000
     19 H19          0.0993 -11.1630   8.0088 H              1 <1>                0.0000
     20 H20         -0.0126 -12.0305   9.5590 H              1 <1>                0.0000
     21 H21          1.5764 -11.5318   8.9310 H              1 <1>                0.0000
     22 H22         -0.5896 -14.6828   7.0112 H              1 <1>                0.0000
     23 H23         -1.2775 -13.8706   8.4380 H              1 <1>                0.0000
     24 H24         -1.1655 -13.0031   6.8877 H              1 <1>                0.0000
     25 H25          1.0466 -16.2516  12.5886 H              1 <1>                0.0000
     26 H26         -0.3676 -15.3165  12.0466 H              1 <1>                0.0000
     27 H27         -1.3868 -17.3583  11.9362 H              1 <1>                0.0000
     28 H28         -0.5091 -17.5133  10.3954 H              1 <1>                0.0000
     29 H29          0.9108 -18.2609  12.9456 H              1 <1>                0.0000
     30 H30          1.8603 -16.1713  10.2810 H              1 <1>                0.0000
     31 H31          1.9746 -18.3452  10.8034 H              1 <1>                0.0000
@<TRIPOS>BOND
    1    1    2 1     
    2    1   16 1     
    3    1   17 1     
    4    1   18 1     
    5    2    3 1     
    6    2    4 1     
    7    2    5 1     
    8    3   19 1     
    9    3   20 1     
   10    3   21 1     
   11    4   22 1     
   12    4   23 1     
   13    4   24 1     
   14    5    6 1     
   15    6    7 2     
   16    6    8 am    
   17    8    9 1     
   18    8   30 1     
   19    9   10 1     
   20    9   25 1     
   21    9   26 1     
   22   10   11 1     
   23   10   27 1     
   24   10   28 1     
   25   11   12 1     
   26   11   13 1     
   27   11   29 1     
   28   12   31 1     
   29   13   14 ar    
   30   13   15 ar    
@<TRIPOS>SUBSTRUCTURE
      1 ****           1
@<TRIPOS>SET
DONOR_HYDROGENS      STATIC     ATOMS    <user>   **** ""
2 30 31
ATOM$RED        STATIC     ATOMS    COLORGROUP SYSTEM
2 30 31
@<TRIPOS>COMMENT
> <Gold.Version>
2022.2.0

> <Gold.Id.Protein>
3pbl|protein|mol2

> <Gold.Protein.RotatedTorsions>
[ 1303 1298 1297 1294 ] final -143.99 input  179.99 | X-H torsion
[ 2461 2456 2455 2452 ] final   21.98 input   30.03 | X-H torsion
[ 2515 2510 2509 2506 ] final  -94.80 input  -89.99 | X-H torsion
[ 3721 3712 3711 3710 ] final   39.51 input -179.91 | X-H torsion
[ 3841 3832 3831 3830 ] final  -13.58 input -179.91 | X-H torsion
[ 3767 3762 3761 3758 ] final -160.62 input  -89.99 | X-H torsion
[ 2472 2467 2466 2463 ] final   42.54 input  -89.97 | X-H torsion

> <Gold.Protein.ActiveResidues>
 VAL82   VAL86   LEU89   PHE106  VAL107  ASP110  VAL111  MET112  CYS114  THR115 
 CYS181  SER182  ILE183  PHE188  VAL189  ILE190  SER192  SER193  SER196  TRP342 
 PHE345  PHE346  HIS349  VAL350  TYR365  THR369  GLY372  TYR373 

> <Gold.Protein.RotatedAtoms>
    4.5416   -8.5311    4.3298 H   0  0  0  0  0  0  0  0  0  0  0  0  # atno 1303 bound_to 1298
    1.3898   -7.9187    7.0830 H   0  0  0  0  0  0  0  0  0  0  0  0  # atno 2461 bound_to 2456
   -4.3592   -4.7996    7.6899 H   0  0  0  0  0  0  0  0  0  0  0  0  # atno 2472 bound_to 2467
    2.8105   -8.9889    4.6639 H   0  0  0  0  0  0  0  0  0  0  0  0  # atno 2515 bound_to 2510
   -2.5056  -18.0144   13.6600 H   0  0  0  0  0  0  0  0  0  0  0  0  # atno 3721 bound_to 3712
   -4.3007  -22.3040   11.6440 H   0  0  0  0  0  0  0  0  0  0  0  0  # atno 3767 bound_to 3762
    1.6376  -20.3272    9.4771 H   0  0  0  0  0  0  0  0  0  0  0  0  # atno 3841 bound_to 3832
    4.4903  -10.0645    4.8885 LP  0  0  0  0  0  0  0  0  0  0  0  0  # atno 4297 bound_to 1298
    3.3301   -9.5261    3.8733 LP  0  0  0  0  0  0  0  0  0  0  0  0  # atno 4298 bound_to 1298
    0.3912   -8.9905    7.8050 LP  0  0  0  0  0  0  0  0  0  0  0  0  # atno 4299 bound_to 2456
    1.9568   -8.8988    8.2599 LP  0  0  0  0  0  0  0  0  0  0  0  0  # atno 4300 bound_to 2456
    2.1211   -8.5693    6.0832 LP  0  0  0  0  0  0  0  0  0  0  0  0  # atno 4301 bound_to 2510
    2.3649   -7.4406    4.9285 LP  0  0  0  0  0  0  0  0  0  0  0  0  # atno 4302 bound_to 2510
   -3.1547  -17.1265   14.8297 LP  0  0  0  0  0  0  0  0  0  0  0  0  # atno 4306 bound_to 3712
   -3.4801  -16.8018   13.2627 LP  0  0  0  0  0  0  0  0  0  0  0  0  # atno 4307 bound_to 3712
    2.3502  -19.7149    8.1758 LP  0  0  0  0  0  0  0  0  0  0  0  0  # atno 4314 bound_to 3832
    2.9875  -21.0095    8.9403 LP  0  0  0  0  0  0  0  0  0  0  0  0  # atno 4315 bound_to 3832
   -4.3153  -23.3346   10.3773 LP  0  0  0  0  0  0  0  0  0  0  0  0  # atno 4318 bound_to 3762
   -5.5113  -22.2363   10.5501 LP  0  0  0  0  0  0  0  0  0  0  0  0  # atno 4319 bound_to 3762
   -3.8880   -5.2828    9.1768 LP  0  0  0  0  0  0  0  0  0  0  0  0  # atno 4320 bound_to 2467
   -5.4698   -5.3110    8.7722 LP  0  0  0  0  0  0  0  0  0  0  0  0  # atno 4321 bound_to 2467

> <Gold.Score>
     Score     S(PLP)   S(hbond)     S(cho)   S(metal)  DE(clash)   DE(tors)     intcor
     43.85     -33.53       3.84       0.00       0.00       0.02       0.86       0.54

> <Gold.PLP.Fitness>
43.8491

> <Gold.PLP.PLP>
-33.5254

> <Gold.PLP.part.hbond>
-3.6907

> <Gold.PLP.part.metal>
0.0000

> <Gold.PLP.part.buried>
-5.5098

> <Gold.PLP.part.nonpolar>
-25.7384

> <Gold.PLP.part.repulsive>
0.1377

> <Gold.PLP.ligand.clash>
0.0178

> <Gold.PLP.ligand.torsion>
0.8553

> <Gold.PLP.Chemscore.Hbond>
3.8368

> <Gold.PLP.Chemscore.CHOScore>
0.0000

> <Gold.PLP.Chemscore.Metal>
0.0000

> <Gold.Chemscore.Hbonds>
donor molecule, donor type, donor heavy atom, donor atom, acceptor molecule, acceptor atom, score
      L1  H     8    30       P1  1227  1.00
      L1  H    12    31       P1  1227  0.94
      P1  H  3712  3721       L1    15  1.00
      P1  H  3832  3841       L1    12  0.89

> <Gold.PLP.Chemscore.Internal.Correction>
0.5415

