#       Name:                EN300-1589650_i001
#       Creating user name   fsindt
#       Creation time:       Tue Feb 28 16:43:00 2023


#       File generated by GOLD software.
#

@<TRIPOS>MOLECULE
EN300-1589650_i001|acide_1|mol2|4847|dock8
    31    30     1
SMALL
USER_CHARGES


@<TRIPOS>ATOM
      1 C1          -2.7625 -10.3441  10.7416 C.3            1 <1>                0.0000
      2 C2          -1.5923 -11.2830  10.4416 C.3            1 <1>                0.0000
      3 C3          -1.6361 -11.6984   8.9697 C.3            1 <1>                0.0000
      4 C4          -0.2736 -10.5625  10.7292 C.3            1 <1>                0.0000
      5 O5          -1.6918 -12.4637  11.2808 O.3            1 <1>                0.0000
      6 C6          -0.6896 -13.3589  11.1977 C.2            1 <1>                0.0000
      7 O7           0.1526 -13.2491  10.3287 O.2            1 <1>                0.0000
      8 N8          -0.6205 -14.3768  12.0784 N.am           1 <1>                0.0000
      9 C9           0.4701 -15.3509  11.9880 C.3            1 <1>                0.0000
     10 C10          1.0422 -15.6069  13.3837 C.3            1 <1>                0.0000
     11 C11          1.6453 -17.0120  13.4377 C.3            1 <1>                0.0000
     12 O12          2.6366 -17.1444  12.4170 O.3            1 <1>                0.0000
     13 C13          0.5592 -18.0336  13.2187 C.2            1 <1>                0.0000
     14 O14          0.6659 -18.8544  12.3235 O.co2          1 <1>                0.0000
     15 O15         -0.4261 -18.0392  13.9368 O.co2          1 <1>               -1.0000
     16 H16         -3.7020 -10.8574  10.5367 H              1 <1>                0.0000
     17 H17         -2.7313 -10.0482  11.7902 H              1 <1>                0.0000
     18 H18         -2.6879  -9.4577  10.1116 H              1 <1>                0.0000
     19 H19         -1.5614 -10.8120   8.3397 H              1 <1>                0.0000
     20 H20         -0.8025 -12.3672   8.7560 H              1 <1>                0.0000
     21 H21         -2.5755 -12.2117   8.7648 H              1 <1>                0.0000
     22 H22         -0.2424 -10.2665  11.7778 H              1 <1>                0.0000
     23 H23          0.5601 -11.2314  10.5155 H              1 <1>                0.0000
     24 H24         -0.1990  -9.6761  10.0992 H              1 <1>                0.0000
     25 H25          0.0897 -16.2847  11.5742 H              1 <1>                0.0000
     26 H26          1.2543 -14.9592  11.3401 H              1 <1>                0.0000
     27 H27          1.8163 -14.8707  13.5998 H              1 <1>                0.0000
     28 H28          0.2458 -15.5247  14.1235 H              1 <1>                0.0000
     29 H29          2.1043 -17.1731  14.4131 H              1 <1>                0.0000
     30 H30         -1.2927 -14.4644  12.7722 H              1 <1>                0.0000
     31 H31          2.3185 -16.9292  11.5295 H              1 <1>                0.0000
@<TRIPOS>BOND
    1    1    2 1     
    2    1   16 1     
    3    1   17 1     
    4    1   18 1     
    5    2    3 1     
    6    2    4 1     
    7    2    5 1     
    8    3   19 1     
    9    3   20 1     
   10    3   21 1     
   11    4   22 1     
   12    4   23 1     
   13    4   24 1     
   14    5    6 1     
   15    6    7 2     
   16    6    8 am    
   17    8    9 1     
   18    8   30 1     
   19    9   10 1     
   20    9   25 1     
   21    9   26 1     
   22   10   11 1     
   23   10   27 1     
   24   10   28 1     
   25   11   12 1     
   26   11   13 1     
   27   11   29 1     
   28   12   31 1     
   29   13   14 ar    
   30   13   15 ar    
@<TRIPOS>SUBSTRUCTURE
      1 ****           1
@<TRIPOS>SET
DONOR_HYDROGENS      STATIC     ATOMS    <user>   **** ""
2 30 31
ATOM$RED        STATIC     ATOMS    COLORGROUP SYSTEM
2 30 31
@<TRIPOS>COMMENT
> <Gold.Version>
2022.2.0

> <Gold.Id.Protein>
3pbl|protein|mol2

> <Gold.Protein.RotatedTorsions>
[ 1303 1298 1297 1294 ] final   23.33 input  179.99 | X-H torsion
[ 2461 2456 2455 2452 ] final  102.47 input   30.03 | X-H torsion
[ 2515 2510 2509 2506 ] final  140.54 input  -89.99 | X-H torsion
[ 3721 3712 3711 3710 ] final   15.42 input -179.91 | X-H torsion
[ 3841 3832 3831 3830 ] final   19.16 input -179.91 | X-H torsion
[ 3767 3762 3761 3758 ] final  -84.66 input  -89.99 | X-H torsion
[ 2472 2467 2466 2463 ] final  -55.45 input  -89.97 | X-H torsion

> <Gold.Protein.ActiveResidues>
 VAL82   VAL86   LEU89   PHE106  VAL107  ASP110  VAL111  MET112  CYS114  THR115 
 CYS181  SER182  ILE183  PHE188  VAL189  ILE190  SER192  SER193  SER196  TRP342 
 PHE345  PHE346  HIS349  VAL350  TYR365  THR369  GLY372  TYR373 

> <Gold.Protein.RotatedAtoms>
    3.5627  -10.1275    4.2690 H   0  0  0  0  0  0  0  0  0  0  0  0  # atno 1303 bound_to 1298
    2.1615   -8.4375    7.8706 H   0  0  0  0  0  0  0  0  0  0  0  0  # atno 2461 bound_to 2456
   -3.6974   -5.1616    8.8965 H   0  0  0  0  0  0  0  0  0  0  0  0  # atno 2472 bound_to 2467
    2.1015   -8.4957    6.0925 H   0  0  0  0  0  0  0  0  0  0  0  0  # atno 2515 bound_to 2510
   -2.4699  -18.0209   14.0197 H   0  0  0  0  0  0  0  0  0  0  0  0  # atno 3721 bound_to 3712
   -5.2798  -21.9316   11.1446 H   0  0  0  0  0  0  0  0  0  0  0  0  # atno 3767 bound_to 3762
    1.9331  -20.6890    9.6181 H   0  0  0  0  0  0  0  0  0  0  0  0  # atno 3841 bound_to 3832
    3.9140   -8.5739    3.9096 LP  0  0  0  0  0  0  0  0  0  0  0  0  # atno 4297 bound_to 1298
    4.8857   -9.4197    4.9131 LP  0  0  0  0  0  0  0  0  0  0  0  0  # atno 4298 bound_to 1298
    0.7819   -8.1088    7.0606 LP  0  0  0  0  0  0  0  0  0  0  0  0  # atno 4299 bound_to 2456
    0.7947   -9.2618    8.2169 LP  0  0  0  0  0  0  0  0  0  0  0  0  # atno 4300 bound_to 2456
    2.3975   -7.4633    4.8627 LP  0  0  0  0  0  0  0  0  0  0  0  0  # atno 4301 bound_to 2510
    2.7979   -9.0400    4.7196 LP  0  0  0  0  0  0  0  0  0  0  0  0  # atno 4302 bound_to 2510
   -3.3430  -16.8268   14.6440 LP  0  0  0  0  0  0  0  0  0  0  0  0  # atno 4306 bound_to 3712
   -3.3332  -17.0940   13.0331 LP  0  0  0  0  0  0  0  0  0  0  0  0  # atno 4307 bound_to 3712
    1.8681  -19.6387    8.4062 LP  0  0  0  0  0  0  0  0  0  0  0  0  # atno 4314 bound_to 3832
    3.1283  -20.6676    8.5471 LP  0  0  0  0  0  0  0  0  0  0  0  0  # atno 4315 bound_to 3832
   -3.9359  -22.8355   11.3536 LP  0  0  0  0  0  0  0  0  0  0  0  0  # atno 4318 bound_to 3762
   -4.9119  -23.1077   10.0730 LP  0  0  0  0  0  0  0  0  0  0  0  0  # atno 4319 bound_to 3762
   -5.3023   -5.4027    9.0776 LP  0  0  0  0  0  0  0  0  0  0  0  0  # atno 4320 bound_to 2467
   -4.7171   -4.8292    7.6651 LP  0  0  0  0  0  0  0  0  0  0  0  0  # atno 4321 bound_to 2467

> <Gold.Score>
     Score     S(PLP)   S(hbond)     S(cho)   S(metal)  DE(clash)   DE(tors)     intcor
     42.85     -38.58       1.75       0.00       0.00       0.75       0.39       0.54

> <Gold.PLP.Fitness>
42.8467

> <Gold.PLP.PLP>
-38.5772

> <Gold.PLP.part.hbond>
-2.0000

> <Gold.PLP.part.metal>
0.0000

> <Gold.PLP.part.buried>
-5.6530

> <Gold.PLP.part.nonpolar>
-31.9461

> <Gold.PLP.part.repulsive>
0.2144

> <Gold.PLP.ligand.clash>
0.7528

> <Gold.PLP.ligand.torsion>
0.3876

> <Gold.PLP.Chemscore.Hbond>
1.7520

> <Gold.PLP.Chemscore.CHOScore>
0.0000

> <Gold.PLP.Chemscore.Metal>
0.0000

> <Gold.Chemscore.Hbonds>
donor molecule, donor type, donor heavy atom, donor atom, acceptor molecule, acceptor atom, score
      L1  H    12    31       P1  1227  0.75
      P1  H  3712  3721       L1    15  1.00

> <Gold.PLP.Chemscore.Internal.Correction>
0.5415

