#       Name:                EN300-1589650_i001
#       Creating user name   fsindt
#       Creation time:       Tue Feb 28 16:43:06 2023


#       File generated by GOLD software.
#

@<TRIPOS>MOLECULE
EN300-1589650_i001|acide_1|mol2|4847|dock11
    31    30     1
SMALL
USER_CHARGES


@<TRIPOS>ATOM
      1 C1           1.0361 -12.1350   8.6670 C.3            1 <1>                0.0000
      2 C2           0.7193 -13.4938   8.0394 C.3            1 <1>                0.0000
      3 C3          -0.7946 -13.6371   7.8704 C.3            1 <1>                0.0000
      4 C4           1.3970 -13.5943   6.6714 C.3            1 <1>                0.0000
      5 O5           1.2122 -14.5522   8.9026 O.3            1 <1>                0.0000
      6 C6           0.6897 -14.6240  10.1413 C.2            1 <1>                0.0000
      7 O7          -0.0944 -13.7764  10.5200 O.2            1 <1>                0.0000
      8 N8           1.0361 -15.6359  10.9613 N.am           1 <1>                0.0000
      9 C9           0.4675 -15.7140  12.3092 C.3            1 <1>                0.0000
     10 C10          1.5934 -15.9051  13.3274 C.3            1 <1>                0.0000
     11 C11          1.8651 -17.3993  13.5127 C.3            1 <1>                0.0000
     12 O12          2.0448 -18.0129  12.2347 O.3            1 <1>                0.0000
     13 C13          0.6962 -18.0388  14.2170 C.2            1 <1>                0.0000
     14 O14          0.8620 -18.6009  15.2862 O.co2          1 <1>                0.0000
     15 O15         -0.4151 -17.9939  13.7177 O.co2          1 <1>               -1.0000
     16 H16          0.5533 -12.0633   9.6416 H              1 <1>                0.0000
     17 H17          2.1146 -12.0328   8.7873 H              1 <1>                0.0000
     18 H18          0.6660 -11.3403   8.0190 H              1 <1>                0.0000
     19 H19         -1.1646 -12.8426   7.2224 H              1 <1>                0.0000
     20 H20         -1.0202 -14.6052   7.4233 H              1 <1>                0.0000
     21 H21         -1.2774 -13.5656   8.8450 H              1 <1>                0.0000
     22 H22          2.4756 -13.4921   6.7917 H              1 <1>                0.0000
     23 H23          1.1713 -14.5624   6.2243 H              1 <1>                0.0000
     24 H24          1.0270 -12.7996   6.0234 H              1 <1>                0.0000
     25 H25         -0.0701 -14.7921  12.5307 H              1 <1>                0.0000
     26 H26         -0.2201 -16.5580  12.3651 H              1 <1>                0.0000
     27 H27          2.4969 -15.4136  12.9666 H              1 <1>                0.0000
     28 H28          1.2984 -15.4683  14.2815 H              1 <1>                0.0000
     29 H29          2.7669 -17.5333  14.1101 H              1 <1>                0.0000
     30 H30          1.6619 -16.3126  10.6590 H              1 <1>                0.0000
     31 H31          2.3402 -17.4039  11.5440 H              1 <1>                0.0000
@<TRIPOS>BOND
    1    1    2 1     
    2    1   16 1     
    3    1   17 1     
    4    1   18 1     
    5    2    3 1     
    6    2    4 1     
    7    2    5 1     
    8    3   19 1     
    9    3   20 1     
   10    3   21 1     
   11    4   22 1     
   12    4   23 1     
   13    4   24 1     
   14    5    6 1     
   15    6    7 2     
   16    6    8 am    
   17    8    9 1     
   18    8   30 1     
   19    9   10 1     
   20    9   25 1     
   21    9   26 1     
   22   10   11 1     
   23   10   27 1     
   24   10   28 1     
   25   11   12 1     
   26   11   13 1     
   27   11   29 1     
   28   12   31 1     
   29   13   14 ar    
   30   13   15 ar    
@<TRIPOS>SUBSTRUCTURE
      1 ****           1
@<TRIPOS>SET
DONOR_HYDROGENS      STATIC     ATOMS    <user>   **** ""
2 30 31
ATOM$RED        STATIC     ATOMS    COLORGROUP SYSTEM
2 30 31
@<TRIPOS>COMMENT
> <Gold.Version>
2022.2.0

> <Gold.Id.Protein>
3pbl|protein|mol2

> <Gold.Protein.RotatedTorsions>
[ 1303 1298 1297 1294 ] final   69.41 input  179.99 | X-H torsion
[ 2461 2456 2455 2452 ] final -118.52 input   30.03 | X-H torsion
[ 2515 2510 2509 2506 ] final  178.94 input  -89.99 | X-H torsion
[ 3721 3712 3711 3710 ] final   24.11 input -179.91 | X-H torsion
[ 3841 3832 3831 3830 ] final -154.12 input -179.91 | X-H torsion
[ 3767 3762 3761 3758 ] final  -32.35 input  -89.99 | X-H torsion
[ 2472 2467 2466 2463 ] final  -70.56 input  -89.97 | X-H torsion

> <Gold.Protein.ActiveResidues>
 VAL82   VAL86   LEU89   PHE106  VAL107  ASP110  VAL111  MET112  CYS114  THR115 
 CYS181  SER182  ILE183  PHE188  VAL189  ILE190  SER192  SER193  SER196  TRP342 
 PHE345  PHE346  HIS349  VAL350  TYR365  THR369  GLY372  TYR373 

> <Gold.Protein.RotatedAtoms>
    4.1376  -10.2482    4.7154 H   0  0  0  0  0  0  0  0  0  0  0  0  # atno 1303 bound_to 1298
    0.5598   -9.1642    8.0375 H   0  0  0  0  0  0  0  0  0  0  0  0  # atno 2461 bound_to 2456
   -3.8158   -5.2469    9.0970 H   0  0  0  0  0  0  0  0  0  0  0  0  # atno 2472 bound_to 2467
    2.3166   -9.0257    5.8536 H   0  0  0  0  0  0  0  0  0  0  0  0  # atno 2515 bound_to 2510
   -2.4741  -18.0338   13.8891 H   0  0  0  0  0  0  0  0  0  0  0  0  # atno 3721 bound_to 3712
   -5.5039  -22.3254   10.4475 H   0  0  0  0  0  0  0  0  0  0  0  0  # atno 3767 bound_to 3762
    2.6804  -19.7868    8.3475 H   0  0  0  0  0  0  0  0  0  0  0  0  # atno 3841 bound_to 3832
    3.4272   -9.1134    3.7806 LP  0  0  0  0  0  0  0  0  0  0  0  0  # atno 4297 bound_to 1298
    4.7974   -8.7594    4.5954 LP  0  0  0  0  0  0  0  0  0  0  0  0  # atno 4298 bound_to 1298
    2.1137   -8.6634    8.0795 LP  0  0  0  0  0  0  0  0  0  0  0  0  # atno 4299 bound_to 2456
    1.0641   -7.9808    7.0312 LP  0  0  0  0  0  0  0  0  0  0  0  0  # atno 4300 bound_to 2456
    2.1552   -7.4563    5.4335 LP  0  0  0  0  0  0  0  0  0  0  0  0  # atno 4301 bound_to 2510
    2.8250   -8.5168    4.3879 LP  0  0  0  0  0  0  0  0  0  0  0  0  # atno 4302 bound_to 2510
   -3.2786  -16.9262   14.7280 LP  0  0  0  0  0  0  0  0  0  0  0  0  # atno 4306 bound_to 3712
   -3.3927  -16.9797   13.0999 LP  0  0  0  0  0  0  0  0  0  0  0  0  # atno 4307 bound_to 3712
    2.7380  -21.1387    9.2106 LP  0  0  0  0  0  0  0  0  0  0  0  0  # atno 4314 bound_to 3832
    1.3950  -20.2098    9.2105 LP  0  0  0  0  0  0  0  0  0  0  0  0  # atno 4315 bound_to 3832
   -4.4048  -22.2167   11.6504 LP  0  0  0  0  0  0  0  0  0  0  0  0  # atno 4318 bound_to 3762
   -4.2190  -23.3329   10.4730 LP  0  0  0  0  0  0  0  0  0  0  0  0  # atno 4319 bound_to 3762
   -5.4305   -5.3434    8.8739 LP  0  0  0  0  0  0  0  0  0  0  0  0  # atno 4320 bound_to 2467
   -4.4705   -4.8033    7.6684 LP  0  0  0  0  0  0  0  0  0  0  0  0  # atno 4321 bound_to 2467

> <Gold.Score>
     Score     S(PLP)   S(hbond)     S(cho)   S(metal)  DE(clash)   DE(tors)     intcor
     42.97     -36.22       2.68       0.00       0.00       1.25       0.29       0.53

> <Gold.PLP.Fitness>
42.9710

> <Gold.PLP.PLP>
-36.2234

> <Gold.PLP.part.hbond>
-3.0000

> <Gold.PLP.part.metal>
0.0000

> <Gold.PLP.part.buried>
-6.5196

> <Gold.PLP.part.nonpolar>
-27.0101

> <Gold.PLP.part.repulsive>
0.2419

> <Gold.PLP.ligand.clash>
1.2529

> <Gold.PLP.ligand.torsion>
0.2856

> <Gold.PLP.Chemscore.Hbond>
2.6800

> <Gold.PLP.Chemscore.CHOScore>
0.0000

> <Gold.PLP.Chemscore.Metal>
0.0000

> <Gold.Chemscore.Hbonds>
donor molecule, donor type, donor heavy atom, donor atom, acceptor molecule, acceptor atom, score
      L1  H     8    30       P1  1227  1.00
      L1  H    12    31       P1  1227  0.70
      P1  H  3712  3721       L1    15  0.98

> <Gold.PLP.Chemscore.Internal.Correction>
0.5318

