#       Name:                EN300-1589650_i001
#       Creating user name   fsindt
#       Creation time:       Tue Feb 28 16:43:10 2023


#       File generated by GOLD software.
#

@<TRIPOS>MOLECULE
EN300-1589650_i001|acide_1|mol2|4847|dock13
    31    30     1
SMALL
USER_CHARGES


@<TRIPOS>ATOM
      1 C1           1.1287 -12.8331   6.5928 C.3            1 <1>                0.0000
      2 C2           0.6057 -12.9262   8.0275 C.3            1 <1>                0.0000
      3 C3           1.0687 -11.7018   8.8196 C.3            1 <1>                0.0000
      4 C4          -0.9234 -12.9747   8.0110 C.3            1 <1>                0.0000
      5 O5           1.1214 -14.1307   8.6534 O.3            1 <1>                0.0000
      6 C6           0.8515 -14.3037   9.9610 C.2            1 <1>                0.0000
      7 O7           0.0225 -13.6036  10.5080 O.2            1 <1>                0.0000
      8 N8           1.5007 -15.2534  10.6632 N.am           1 <1>                0.0000
      9 C9           1.2070 -15.4416  12.0861 C.3            1 <1>                0.0000
     10 C10          0.3959 -16.7252  12.2739 C.3            1 <1>                0.0000
     11 C11          1.1566 -17.6785  13.1978 C.3            1 <1>                0.0000
     12 O12          2.2741 -18.2294  12.4981 O.3            1 <1>                0.0000
     13 C13          0.2399 -18.7915  13.6360 C.2            1 <1>                0.0000
     14 O14          0.4847 -19.9432  13.3194 O.co2          1 <1>                0.0000
     15 O15         -0.7464 -18.5403  14.3072 O.co2          1 <1>               -1.0000
     16 H16          2.2181 -12.7986   6.6045 H              1 <1>                0.0000
     17 H17          0.7988 -13.7054   6.0285 H              1 <1>                0.0000
     18 H18          0.7416 -11.9289   6.1229 H              1 <1>                0.0000
     19 H19          0.6816 -10.7975   8.3498 H              1 <1>                0.0000
     20 H20          0.6961 -11.7681   9.8417 H              1 <1>                0.0000
     21 H21          2.1580 -11.6673   8.8314 H              1 <1>                0.0000
     22 H22         -1.2533 -13.8470   7.4467 H              1 <1>                0.0000
     23 H23         -1.2959 -13.0410   9.0332 H              1 <1>                0.0000
     24 H24         -1.3105 -12.0704   7.5411 H              1 <1>                0.0000
     25 H25          2.1409 -15.5171  12.6429 H              1 <1>                0.0000
     26 H26          0.6323 -14.5916  12.4540 H              1 <1>                0.0000
     27 H27         -0.5699 -16.4832  12.7172 H              1 <1>                0.0000
     28 H28          0.2422 -17.2027  11.3061 H              1 <1>                0.0000
     29 H29          1.5091 -17.1323  14.0728 H              1 <1>                0.0000
     30 H30          2.1624 -15.8123  10.2265 H              1 <1>                0.0000
     31 H31          2.2715 -18.0486  11.5481 H              1 <1>                0.0000
@<TRIPOS>BOND
    1    1    2 1     
    2    1   16 1     
    3    1   17 1     
    4    1   18 1     
    5    2    3 1     
    6    2    4 1     
    7    2    5 1     
    8    3   19 1     
    9    3   20 1     
   10    3   21 1     
   11    4   22 1     
   12    4   23 1     
   13    4   24 1     
   14    5    6 1     
   15    6    7 2     
   16    6    8 am    
   17    8    9 1     
   18    8   30 1     
   19    9   10 1     
   20    9   25 1     
   21    9   26 1     
   22   10   11 1     
   23   10   27 1     
   24   10   28 1     
   25   11   12 1     
   26   11   13 1     
   27   11   29 1     
   28   12   31 1     
   29   13   14 ar    
   30   13   15 ar    
@<TRIPOS>SUBSTRUCTURE
      1 ****           1
@<TRIPOS>SET
DONOR_HYDROGENS      STATIC     ATOMS    <user>   **** ""
2 30 31
ATOM$RED        STATIC     ATOMS    COLORGROUP SYSTEM
2 30 31
@<TRIPOS>COMMENT
> <Gold.Version>
2022.2.0

> <Gold.Id.Protein>
3pbl|protein|mol2

> <Gold.Protein.RotatedTorsions>
[ 1303 1298 1297 1294 ] final -143.45 input  179.99 | X-H torsion
[ 2461 2456 2455 2452 ] final    6.46 input   30.03 | X-H torsion
[ 2515 2510 2509 2506 ] final  -39.70 input  -89.99 | X-H torsion
[ 3721 3712 3711 3710 ] final   15.33 input -179.91 | X-H torsion
[ 3841 3832 3831 3830 ] final   12.77 input -179.91 | X-H torsion
[ 3767 3762 3761 3758 ] final  145.78 input  -89.99 | X-H torsion
[ 2472 2467 2466 2463 ] final  -76.36 input  -89.97 | X-H torsion

> <Gold.Protein.ActiveResidues>
 VAL82   VAL86   LEU89   PHE106  VAL107  ASP110  VAL111  MET112  CYS114  THR115 
 CYS181  SER182  ILE183  PHE188  VAL189  ILE190  SER192  SER193  SER196  TRP342 
 PHE345  PHE346  HIS349  VAL350  TYR365  THR369  GLY372  TYR373 

> <Gold.Protein.RotatedAtoms>
    4.5353   -8.5282    4.3242 H   0  0  0  0  0  0  0  0  0  0  0  0  # atno 1303 bound_to 1298
    1.1427   -7.9578    7.0358 H   0  0  0  0  0  0  0  0  0  0  0  0  # atno 2461 bound_to 2456
   -3.8756   -5.2778    9.1644 H   0  0  0  0  0  0  0  0  0  0  0  0  # atno 2472 bound_to 2467
    2.7641   -8.1741    4.3574 H   0  0  0  0  0  0  0  0  0  0  0  0  # atno 2515 bound_to 2510
   -2.4699  -18.0207   14.0210 H   0  0  0  0  0  0  0  0  0  0  0  0  # atno 3721 bound_to 3712
   -3.9107  -22.9449   11.2436 H   0  0  0  0  0  0  0  0  0  0  0  0  # atno 3767 bound_to 3762
    1.8613  -20.6258    9.6058 H   0  0  0  0  0  0  0  0  0  0  0  0  # atno 3841 bound_to 3832
    4.4969  -10.0591    4.8910 LP  0  0  0  0  0  0  0  0  0  0  0  0  # atno 4297 bound_to 1298
    3.3298   -9.5344    3.8764 LP  0  0  0  0  0  0  0  0  0  0  0  0  # atno 4298 bound_to 1298
    0.5099   -9.1277    7.9835 LP  0  0  0  0  0  0  0  0  0  0  0  0  # atno 4299 bound_to 2456
    2.0851   -8.7225    8.1287 LP  0  0  0  0  0  0  0  0  0  0  0  0  # atno 4300 bound_to 2456
    2.4652   -9.2015    5.5907 LP  0  0  0  0  0  0  0  0  0  0  0  0  # atno 4301 bound_to 2510
    2.0672   -7.6236    5.7275 LP  0  0  0  0  0  0  0  0  0  0  0  0  # atno 4302 bound_to 2510
   -3.3436  -16.8259   14.6431 LP  0  0  0  0  0  0  0  0  0  0  0  0  # atno 4306 bound_to 3712
   -3.3325  -17.0951   13.0325 LP  0  0  0  0  0  0  0  0  0  0  0  0  # atno 4307 bound_to 3712
    1.9569  -19.6343    8.3473 LP  0  0  0  0  0  0  0  0  0  0  0  0  # atno 4314 bound_to 3832
    3.1224  -20.7451    8.6201 LP  0  0  0  0  0  0  0  0  0  0  0  0  # atno 4315 bound_to 3832
   -5.0378  -23.0145   10.0639 LP  0  0  0  0  0  0  0  0  0  0  0  0  # atno 4318 bound_to 3762
   -5.1785  -21.9158   11.2638 LP  0  0  0  0  0  0  0  0  0  0  0  0  # atno 4319 bound_to 3762
   -5.4643   -5.3165    8.7889 LP  0  0  0  0  0  0  0  0  0  0  0  0  # atno 4320 bound_to 2467
   -4.3769   -4.7993    7.6859 LP  0  0  0  0  0  0  0  0  0  0  0  0  # atno 4321 bound_to 2467

> <Gold.Score>
     Score     S(PLP)   S(hbond)     S(cho)   S(metal)  DE(clash)   DE(tors)     intcor
     39.00     -31.19       2.99       0.00       0.00       0.24       0.73       0.53

> <Gold.PLP.Fitness>
39.0014

> <Gold.PLP.PLP>
-31.1912

> <Gold.PLP.part.hbond>
-3.0000

> <Gold.PLP.part.metal>
0.0000

> <Gold.PLP.part.buried>
-6.0796

> <Gold.PLP.part.nonpolar>
-22.4421

> <Gold.PLP.part.repulsive>
0.1258

> <Gold.PLP.ligand.clash>
0.2437

> <Gold.PLP.ligand.torsion>
0.7269

> <Gold.PLP.Chemscore.Hbond>
2.9920

> <Gold.PLP.Chemscore.CHOScore>
0.0000

> <Gold.PLP.Chemscore.Metal>
0.0000

> <Gold.Chemscore.Hbonds>
donor molecule, donor type, donor heavy atom, donor atom, acceptor molecule, acceptor atom, score
      L1  H     8    30       P1  1227  0.99
      L1  H    12    31       P1  1227  1.00
      P1  H  3712  3721       L1    15  1.00

> <Gold.PLP.Chemscore.Internal.Correction>
0.5318

