#       Name:                EN300-1589650_i001
#       Creating user name   fsindt
#       Creation time:       Tue Feb 28 16:43:24 2023


#       File generated by GOLD software.
#

@<TRIPOS>MOLECULE
EN300-1589650_i001|acide_1|mol2|4847|dock20
    31    30     1
SMALL
USER_CHARGES


@<TRIPOS>ATOM
      1 C1           2.2976 -16.4914  14.5730 C.3            1 <1>                0.0000
      2 C2           1.3463 -17.5254  13.9677 C.3            1 <1>                0.0000
      3 C3           2.0791 -18.3208  12.8855 C.3            1 <1>                0.0000
      4 C4           0.8647 -18.4786  15.0634 C.3            1 <1>                0.0000
      5 O5           0.2047 -16.8471  13.3803 O.3            1 <1>                0.0000
      6 C6           0.4653 -15.8506  12.5134 C.2            1 <1>                0.0000
      7 O7           1.5686 -15.7533  12.0134 O.2            1 <1>                0.0000
      8 N8          -0.4973 -14.9608  12.2002 N.am           1 <1>                0.0000
      9 C9          -0.2136 -13.8763  11.2570 C.3            1 <1>                0.0000
     10 C10         -1.3470 -12.8496  11.3044 C.3            1 <1>                0.0000
     11 C11         -0.8698 -11.5344  10.6853 C.3            1 <1>                0.0000
     12 O12         -1.9117 -10.5604  10.7741 O.3            1 <1>                0.0000
     13 C13         -0.5152 -11.7600   9.2380 C.2            1 <1>                0.0000
     14 O14         -0.0595 -10.8458   8.5723 O.co2          1 <1>                0.0000
     15 O15         -0.6840 -12.8568   8.7329 O.co2          1 <1>               -1.0000
     16 H16          2.6407 -15.8123  13.7925 H              1 <1>                0.0000
     17 H17          1.7755 -15.9248  15.3441 H              1 <1>                0.0000
     18 H18          3.1547 -17.0005  15.0141 H              1 <1>                0.0000
     19 H19          2.9361 -18.8300  13.3265 H              1 <1>                0.0000
     20 H20          1.4013 -19.0575  12.4543 H              1 <1>                0.0000
     21 H21          2.4221 -17.6418  12.1050 H              1 <1>                0.0000
     22 H22          0.3426 -17.9119  15.8344 H              1 <1>                0.0000
     23 H23          0.1870 -19.2153  14.6320 H              1 <1>                0.0000
     24 H24          1.7218 -18.9877  15.5044 H              1 <1>                0.0000
     25 H25          0.7252 -13.3941  11.5294 H              1 <1>                0.0000
     26 H26         -0.1339 -14.2832  10.2488 H              1 <1>                0.0000
     27 H27         -2.2021 -13.2262  10.7432 H              1 <1>                0.0000
     28 H28         -1.6391 -12.6785  12.3405 H              1 <1>                0.0000
     29 H29          0.0083 -11.1771  11.2231 H              1 <1>                0.0000
     30 H30         -1.3780 -15.0384  12.5993 H              1 <1>                0.0000
     31 H31         -1.7559  -9.7680  10.2422 H              1 <1>                0.0000
@<TRIPOS>BOND
    1    1    2 1     
    2    1   16 1     
    3    1   17 1     
    4    1   18 1     
    5    2    3 1     
    6    2    4 1     
    7    2    5 1     
    8    3   19 1     
    9    3   20 1     
   10    3   21 1     
   11    4   22 1     
   12    4   23 1     
   13    4   24 1     
   14    5    6 1     
   15    6    7 2     
   16    6    8 am    
   17    8    9 1     
   18    8   30 1     
   19    9   10 1     
   20    9   25 1     
   21    9   26 1     
   22   10   11 1     
   23   10   27 1     
   24   10   28 1     
   25   11   12 1     
   26   11   13 1     
   27   11   29 1     
   28   12   31 1     
   29   13   14 ar    
   30   13   15 ar    
@<TRIPOS>SUBSTRUCTURE
      1 ****           1
@<TRIPOS>SET
DONOR_HYDROGENS      STATIC     ATOMS    <user>   **** ""
2 30 31
ATOM$RED        STATIC     ATOMS    COLORGROUP SYSTEM
2 30 31
@<TRIPOS>COMMENT
> <Gold.Version>
2022.2.0

> <Gold.Id.Protein>
3pbl|protein|mol2

> <Gold.Protein.RotatedTorsions>
[ 1303 1298 1297 1294 ] final  168.85 input  179.99 | X-H torsion
[ 2461 2456 2455 2452 ] final -114.92 input   30.03 | X-H torsion
[ 2515 2510 2509 2506 ] final -137.23 input  -89.99 | X-H torsion
[ 3721 3712 3711 3710 ] final   -0.29 input -179.91 | X-H torsion
[ 3841 3832 3831 3830 ] final  -71.75 input -179.91 | X-H torsion
[ 3767 3762 3761 3758 ] final  -51.26 input  -89.99 | X-H torsion
[ 2472 2467 2466 2463 ] final -151.36 input  -89.97 | X-H torsion

> <Gold.Protein.ActiveResidues>
 VAL82   VAL86   LEU89   PHE106  VAL107  ASP110  VAL111  MET112  CYS114  THR115 
 CYS181  SER182  ILE183  PHE188  VAL189  ILE190  SER192  SER193  SER196  TRP342 
 PHE345  PHE346  HIS349  VAL350  TYR365  THR369  GLY372  TYR373 

> <Gold.Protein.RotatedAtoms>
    4.8980   -9.0287    4.7705 H   0  0  0  0  0  0  0  0  0  0  0  0  # atno 1303 bound_to 1298
    0.5230   -9.1383    7.9988 H   0  0  0  0  0  0  0  0  0  0  0  0  # atno 2461 bound_to 2456
   -4.9985   -5.4579    9.3213 H   0  0  0  0  0  0  0  0  0  0  0  0  # atno 2472 bound_to 2467
    2.6166   -9.2566    5.2605 H   0  0  0  0  0  0  0  0  0  0  0  0  # atno 2515 bound_to 2510
   -2.4875  -17.9549   14.2464 H   0  0  0  0  0  0  0  0  0  0  0  0  # atno 3721 bound_to 3712
   -5.4958  -22.1326   10.6900 H   0  0  0  0  0  0  0  0  0  0  0  0  # atno 3767 bound_to 3762
    1.6859  -19.7164    8.9003 H   0  0  0  0  0  0  0  0  0  0  0  0  # atno 3841 bound_to 3832
    3.8589  -10.2646    4.5274 LP  0  0  0  0  0  0  0  0  0  0  0  0  # atno 4297 bound_to 1298
    3.6050   -8.8281    3.7935 LP  0  0  0  0  0  0  0  0  0  0  0  0  # atno 4298 bound_to 1298
    2.0937   -8.7062    8.1153 LP  0  0  0  0  0  0  0  0  0  0  0  0  # atno 4299 bound_to 2456
    1.1208   -7.9638    7.0341 LP  0  0  0  0  0  0  0  0  0  0  0  0  # atno 4300 bound_to 2456
    2.0290   -7.9042    5.9616 LP  0  0  0  0  0  0  0  0  0  0  0  0  # atno 4301 bound_to 2510
    2.6511   -7.8379    4.4532 LP  0  0  0  0  0  0  0  0  0  0  0  0  # atno 4302 bound_to 2510
   -3.4435  -16.6813   14.4511 LP  0  0  0  0  0  0  0  0  0  0  0  0  # atno 4306 bound_to 3712
   -3.2123  -17.3157   12.9642 LP  0  0  0  0  0  0  0  0  0  0  0  0  # atno 4307 bound_to 3712
    3.0416  -20.3264    8.2953 LP  0  0  0  0  0  0  0  0  0  0  0  0  # atno 4314 bound_to 3832
    2.2403  -21.1035    9.4872 LP  0  0  0  0  0  0  0  0  0  0  0  0  # atno 4315 bound_to 3832
   -4.1807  -22.4272   11.6123 LP  0  0  0  0  0  0  0  0  0  0  0  0  # atno 4318 bound_to 3762
   -4.4512  -23.3151   10.2688 LP  0  0  0  0  0  0  0  0  0  0  0  0  # atno 4319 bound_to 3762
   -5.0827   -4.9125    7.7845 LP  0  0  0  0  0  0  0  0  0  0  0  0  # atno 4320 bound_to 2467
   -3.6358   -5.0232    8.5335 LP  0  0  0  0  0  0  0  0  0  0  0  0  # atno 4321 bound_to 2467

> <Gold.Score>
     Score     S(PLP)   S(hbond)     S(cho)   S(metal)  DE(clash)   DE(tors)     intcor
     37.64     -35.06       1.00       0.00       0.00       0.00       0.44       0.47

> <Gold.PLP.Fitness>
37.6444

> <Gold.PLP.PLP>
-35.0623

> <Gold.PLP.part.hbond>
-1.0000

> <Gold.PLP.part.metal>
0.0000

> <Gold.PLP.part.buried>
-6.6231

> <Gold.PLP.part.nonpolar>
-28.9787

> <Gold.PLP.part.repulsive>
0.1950

> <Gold.PLP.ligand.clash>
0.0000

> <Gold.PLP.ligand.torsion>
0.4424

> <Gold.PLP.Chemscore.Hbond>
1.0000

> <Gold.PLP.Chemscore.CHOScore>
0.0000

> <Gold.PLP.Chemscore.Metal>
0.0000

> <Gold.Chemscore.Hbonds>
donor molecule, donor type, donor heavy atom, donor atom, acceptor molecule, acceptor atom, score
      P1  H  2456  2461       L1    14  1.00

> <Gold.PLP.Chemscore.Internal.Correction>
0.4670

