#       Name:                EN300-1589650_i001
#       Creating user name   fsindt
#       Creation time:       Tue Feb 28 16:42:50 2023


#       File generated by GOLD software.
#

@<TRIPOS>MOLECULE
EN300-1589650_i001|acide_1|mol2|4847|dock2
    31    30     1
SMALL
USER_CHARGES


@<TRIPOS>ATOM
      1 C1           2.2673 -16.6706  14.4057 C.3            1 <1>                0.0000
      2 C2           1.1675 -17.6725  14.0493 C.3            1 <1>                0.0000
      3 C3           1.6890 -19.0964  14.2533 C.3            1 <1>                0.0000
      4 C4          -0.0464 -17.4399  14.9511 C.3            1 <1>                0.0000
      5 O5           0.7806 -17.4931  12.6612 O.3            1 <1>                0.0000
      6 C6           0.4872 -16.2402  12.2655 C.2            1 <1>                0.0000
      7 O7           0.0269 -15.4442  13.0599 O.2            1 <1>                0.0000
      8 N8           0.7040 -15.8687  10.9882 N.am           1 <1>                0.0000
      9 C9           0.3846 -14.5053  10.5576 C.3            1 <1>                0.0000
     10 C10          1.3188 -14.0991   9.4160 C.3            1 <1>                0.0000
     11 C11          0.4878 -13.6900   8.1982 C.3            1 <1>                0.0000
     12 O12          0.6074 -14.6883   7.1828 O.3            1 <1>                0.0000
     13 C13          0.9894 -12.3715   7.6678 C.2            1 <1>                0.0000
     14 O14          1.4020 -12.2920   6.5233 O.co2          1 <1>                0.0000
     15 O15          0.9824 -11.3843   8.3833 O.co2          1 <1>               -1.0000
     16 H16          3.1321 -16.8363  13.7632 H              1 <1>                0.0000
     17 H17          1.8957 -15.6562  14.2603 H              1 <1>                0.0000
     18 H18          2.5578 -16.8052  15.4477 H              1 <1>                0.0000
     19 H19          1.9794 -19.2311  15.2953 H              1 <1>                0.0000
     20 H20          0.9055 -19.8102  13.9993 H              1 <1>                0.0000
     21 H21          2.5537 -19.2622  13.6108 H              1 <1>                0.0000
     22 H22         -0.4180 -16.4255  14.8058 H              1 <1>                0.0000
     23 H23         -0.8299 -18.1538  14.6971 H              1 <1>                0.0000
     24 H24          0.2441 -17.5745  15.9931 H              1 <1>                0.0000
     25 H25         -0.6487 -14.4657  10.2132 H              1 <1>                0.0000
     26 H26          0.5150 -13.8199  11.3951 H              1 <1>                0.0000
     27 H27          1.9364 -13.2589   9.7333 H              1 <1>                0.0000
     28 H28          1.9586 -14.9415   9.1529 H              1 <1>                0.0000
     29 H29         -0.5580 -13.5906   8.4887 H              1 <1>                0.0000
     30 H30          1.0715 -16.5040  10.3540 H              1 <1>                0.0000
     31 H31          1.5104 -14.8164   6.8614 H              1 <1>                0.0000
@<TRIPOS>BOND
    1    1    2 1     
    2    1   16 1     
    3    1   17 1     
    4    1   18 1     
    5    2    3 1     
    6    2    4 1     
    7    2    5 1     
    8    3   19 1     
    9    3   20 1     
   10    3   21 1     
   11    4   22 1     
   12    4   23 1     
   13    4   24 1     
   14    5    6 1     
   15    6    7 2     
   16    6    8 am    
   17    8    9 1     
   18    8   30 1     
   19    9   10 1     
   20    9   25 1     
   21    9   26 1     
   22   10   11 1     
   23   10   27 1     
   24   10   28 1     
   25   11   12 1     
   26   11   13 1     
   27   11   29 1     
   28   12   31 1     
   29   13   14 ar    
   30   13   15 ar    
@<TRIPOS>SUBSTRUCTURE
      1 ****           1
@<TRIPOS>SET
DONOR_HYDROGENS      STATIC     ATOMS    <user>   **** ""
2 30 31
ATOM$RED        STATIC     ATOMS    COLORGROUP SYSTEM
2 30 31
@<TRIPOS>COMMENT
> <Gold.Version>
2022.2.0

> <Gold.Id.Protein>
3pbl|protein|mol2

> <Gold.Protein.RotatedTorsions>
[ 1303 1298 1297 1294 ] final -113.84 input  179.99 | X-H torsion
[ 2461 2456 2455 2452 ] final -155.67 input   30.03 | X-H torsion
[ 2515 2510 2509 2506 ] final  -55.38 input  -89.99 | X-H torsion
[ 3721 3712 3711 3710 ] final  -89.49 input -179.91 | X-H torsion
[ 3841 3832 3831 3830 ] final -172.80 input -179.91 | X-H torsion
[ 3767 3762 3761 3758 ] final  -24.93 input  -89.99 | X-H torsion
[ 2472 2467 2466 2463 ] final  -64.18 input  -89.97 | X-H torsion

> <Gold.Protein.ActiveResidues>
 VAL82   VAL86   LEU89   PHE106  VAL107  ASP110  VAL111  MET112  CYS114  THR115 
 CYS181  SER182  ILE183  PHE188  VAL189  ILE190  SER192  SER193  SER196  TRP342 
 PHE345  PHE346  HIS349  VAL350  TYR365  THR369  GLY372  TYR373 

> <Gold.Protein.RotatedAtoms>
    4.1484   -8.4889    4.0402 H   0  0  0  0  0  0  0  0  0  0  0  0  # atno 1303 bound_to 1298
    1.0651   -9.2883    8.3379 H   0  0  0  0  0  0  0  0  0  0  0  0  # atno 2461 bound_to 2456
   -3.7589   -5.2116    9.0163 H   0  0  0  0  0  0  0  0  0  0  0  0  # atno 2472 bound_to 2467
    2.8139   -8.4262    4.3684 H   0  0  0  0  0  0  0  0  0  0  0  0  # atno 2515 bound_to 2510
   -3.0211  -16.9552   14.6881 H   0  0  0  0  0  0  0  0  0  0  0  0  # atno 3721 bound_to 3712
   -5.4834  -22.4111   10.3632 H   0  0  0  0  0  0  0  0  0  0  0  0  # atno 3767 bound_to 3762
    2.8909  -19.9699    8.3811 H   0  0  0  0  0  0  0  0  0  0  0  0  # atno 3841 bound_to 3832
    4.7917   -9.6827    4.9498 LP  0  0  0  0  0  0  0  0  0  0  0  0  # atno 4297 bound_to 1298
    3.4221   -9.9501    4.1018 LP  0  0  0  0  0  0  0  0  0  0  0  0  # atno 4298 bound_to 1298
    2.1134   -8.2385    7.6550 LP  0  0  0  0  0  0  0  0  0  0  0  0  # atno 4299 bound_to 2456
    0.5592   -8.2816    7.1555 LP  0  0  0  0  0  0  0  0  0  0  0  0  # atno 4300 bound_to 2456
    2.3552   -9.0832    5.7910 LP  0  0  0  0  0  0  0  0  0  0  0  0  # atno 4301 bound_to 2510
    2.1275   -7.4897    5.5163 LP  0  0  0  0  0  0  0  0  0  0  0  0  # atno 4302 bound_to 2510
   -3.4144  -16.9370   13.1315 LP  0  0  0  0  0  0  0  0  0  0  0  0  # atno 4306 bound_to 3712
   -2.6254  -18.2143   13.7739 LP  0  0  0  0  0  0  0  0  0  0  0  0  # atno 4307 bound_to 3712
    2.4804  -21.1540    9.3838 LP  0  0  0  0  0  0  0  0  0  0  0  0  # atno 4314 bound_to 3832
    1.4095  -19.9830    8.9984 LP  0  0  0  0  0  0  0  0  0  0  0  0  # atno 4315 bound_to 3832
   -4.5031  -22.1450   11.6419 LP  0  0  0  0  0  0  0  0  0  0  0  0  # atno 4318 bound_to 3762
   -4.1411  -23.3189   10.5659 LP  0  0  0  0  0  0  0  0  0  0  0  0  # atno 4319 bound_to 3762
   -5.3832   -5.3704    8.9635 LP  0  0  0  0  0  0  0  0  0  0  0  0  # atno 4320 bound_to 2467
   -4.5746   -4.8115    7.6595 LP  0  0  0  0  0  0  0  0  0  0  0  0  # atno 4321 bound_to 2467

> <Gold.Score>
     Score     S(PLP)   S(hbond)     S(cho)   S(metal)  DE(clash)   DE(tors)     intcor
     41.08     -37.92       2.00       0.00       0.00       0.00       1.69       0.54

> <Gold.PLP.Fitness>
41.0780

> <Gold.PLP.PLP>
-37.9202

> <Gold.PLP.part.hbond>
-2.0000

> <Gold.PLP.part.metal>
0.0000

> <Gold.PLP.part.buried>
-7.9505

> <Gold.PLP.part.nonpolar>
-29.0423

> <Gold.PLP.part.repulsive>
0.2227

> <Gold.PLP.ligand.clash>
0.0000

> <Gold.PLP.ligand.torsion>
1.6918

> <Gold.PLP.Chemscore.Hbond>
2.0000

> <Gold.PLP.Chemscore.CHOScore>
0.0000

> <Gold.PLP.Chemscore.Metal>
0.0000

> <Gold.Chemscore.Hbonds>
donor molecule, donor type, donor heavy atom, donor atom, acceptor molecule, acceptor atom, score
      L1  H     8    30       P1  1227  1.00
      P1  H  2456  2461       L1    15  1.00

> <Gold.PLP.Chemscore.Internal.Correction>
0.5415

