#       Name:                EN300-1589650_i001
#       Creating user name   fsindt
#       Creation time:       Tue Feb 28 16:43:11 2023


#       File generated by GOLD software.
#

@<TRIPOS>MOLECULE
EN300-1589650_i001|acide_1|mol2|4847|dock14
    31    30     1
SMALL
USER_CHARGES


@<TRIPOS>ATOM
      1 C1           2.2906 -17.3749  14.6277 C.3            1 <1>                0.0000
      2 C2           1.1827 -16.9620  13.6567 C.3            1 <1>                0.0000
      3 C3           0.7287 -18.1818  12.8524 C.3            1 <1>                0.0000
      4 C4          -0.0027 -16.4003  14.4442 C.3            1 <1>                0.0000
      5 O5           1.6872 -15.9455  12.7508 O.3            1 <1>                0.0000
      6 C6           0.8936 -15.5963  11.7209 C.2            1 <1>                0.0000
      7 O7          -0.3010 -15.8125  11.7739 O.2            1 <1>                0.0000
      8 N8           1.4241 -15.0071  10.6310 N.am           1 <1>                0.0000
      9 C9           0.5605 -14.6271   9.5102 C.3            1 <1>                0.0000
     10 C10          1.3973 -13.9315   8.4347 C.3            1 <1>                0.0000
     11 C11          0.4866 -13.0687   7.5588 C.3            1 <1>                0.0000
     12 O12          1.2546 -12.4819   6.5063 O.3            1 <1>                0.0000
     13 C13         -0.1316 -11.9795   8.3970 C.2            1 <1>                0.0000
     14 O14         -0.8571 -12.2684   9.3334 O.co2          1 <1>                0.0000
     15 O15          0.0938 -10.8095   8.1388 O.co2          1 <1>               -1.0000
     16 H16          3.1351 -17.7751  14.0667 H              1 <1>                0.0000
     17 H17          2.6140 -16.5059  15.2007 H              1 <1>                0.0000
     18 H18          1.9119 -18.1380  15.3078 H              1 <1>                0.0000
     19 H19          0.3499 -18.9449  13.5325 H              1 <1>                0.0000
     20 H20         -0.0606 -17.8876  12.1606 H              1 <1>                0.0000
     21 H21          1.5731 -18.5820  12.2914 H              1 <1>                0.0000
     22 H22          0.3208 -15.5313  15.0173 H              1 <1>                0.0000
     23 H23         -0.7919 -16.1061  13.7524 H              1 <1>                0.0000
     24 H24         -0.3814 -17.1634  15.1243 H              1 <1>                0.0000
     25 H25          0.0974 -15.5196   9.0896 H              1 <1>                0.0000
     26 H26         -0.2150 -13.9474   9.8633 H              1 <1>                0.0000
     27 H27          2.1481 -13.3004   8.9102 H              1 <1>                0.0000
     28 H28          1.8913 -14.6815   7.8170 H              1 <1>                0.0000
     29 H29         -0.3009 -13.6895   7.1314 H              1 <1>                0.0000
     30 H30          2.3777 -14.8344  10.5887 H              1 <1>                0.0000
     31 H31          1.0595 -11.5475   6.3508 H              1 <1>                0.0000
@<TRIPOS>BOND
    1    1    2 1     
    2    1   16 1     
    3    1   17 1     
    4    1   18 1     
    5    2    3 1     
    6    2    4 1     
    7    2    5 1     
    8    3   19 1     
    9    3   20 1     
   10    3   21 1     
   11    4   22 1     
   12    4   23 1     
   13    4   24 1     
   14    5    6 1     
   15    6    7 2     
   16    6    8 am    
   17    8    9 1     
   18    8   30 1     
   19    9   10 1     
   20    9   25 1     
   21    9   26 1     
   22   10   11 1     
   23   10   27 1     
   24   10   28 1     
   25   11   12 1     
   26   11   13 1     
   27   11   29 1     
   28   12   31 1     
   29   13   14 ar    
   30   13   15 ar    
@<TRIPOS>SUBSTRUCTURE
      1 ****           1
@<TRIPOS>SET
DONOR_HYDROGENS      STATIC     ATOMS    <user>   **** ""
2 30 31
ATOM$RED        STATIC     ATOMS    COLORGROUP SYSTEM
2 30 31
@<TRIPOS>COMMENT
> <Gold.Version>
2022.2.0

> <Gold.Id.Protein>
3pbl|protein|mol2

> <Gold.Protein.RotatedTorsions>
[ 1303 1298 1297 1294 ] final   21.30 input  179.99 | X-H torsion
[ 2461 2456 2455 2452 ] final -121.45 input   30.03 | X-H torsion
[ 2515 2510 2509 2506 ] final  -73.88 input  -89.99 | X-H torsion
[ 3721 3712 3711 3710 ] final -143.62 input -179.91 | X-H torsion
[ 3841 3832 3831 3830 ] final -114.94 input -179.91 | X-H torsion
[ 3767 3762 3761 3758 ] final   23.42 input  -89.99 | X-H torsion
[ 2472 2467 2466 2463 ] final -141.89 input  -89.97 | X-H torsion

> <Gold.Protein.ActiveResidues>
 VAL82   VAL86   LEU89   PHE106  VAL107  ASP110  VAL111  MET112  CYS114  THR115 
 CYS181  SER182  ILE183  PHE188  VAL189  ILE190  SER192  SER193  SER196  TRP342 
 PHE345  PHE346  HIS349  VAL350  TYR365  THR369  GLY372  TYR373 

> <Gold.Protein.RotatedAtoms>
    3.5432  -10.1097    4.2485 H   0  0  0  0  0  0  0  0  0  0  0  0  # atno 1303 bound_to 1298
    0.5916   -9.1836    8.0679 H   0  0  0  0  0  0  0  0  0  0  0  0  # atno 2461 bound_to 2456
   -4.8551   -5.4640    9.3819 H   0  0  0  0  0  0  0  0  0  0  0  0  # atno 2472 bound_to 2467
    2.8358   -8.7131    4.4630 H   0  0  0  0  0  0  0  0  0  0  0  0  # atno 2515 bound_to 2510
   -3.3119  -16.5415   14.0833 H   0  0  0  0  0  0  0  0  0  0  0  0  # atno 3721 bound_to 3712
   -5.0674  -22.9893   10.0645 H   0  0  0  0  0  0  0  0  0  0  0  0  # atno 3767 bound_to 3762
    2.1558  -19.5840    8.4907 H   0  0  0  0  0  0  0  0  0  0  0  0  # atno 3841 bound_to 3832
    3.9412   -8.5599    3.9230 LP  0  0  0  0  0  0  0  0  0  0  0  0  # atno 4297 bound_to 1298
    4.8781   -9.4514    4.9201 LP  0  0  0  0  0  0  0  0  0  0  0  0  # atno 4298 bound_to 1298
    2.1274   -8.6284    8.0494 LP  0  0  0  0  0  0  0  0  0  0  0  0  # atno 4299 bound_to 2456
    1.0186   -7.9963    7.0309 LP  0  0  0  0  0  0  0  0  0  0  0  0  # atno 4300 bound_to 2456
    2.2335   -8.8729    5.9721 LP  0  0  0  0  0  0  0  0  0  0  0  0  # atno 4301 bound_to 2510
    2.2272   -7.4129    5.2406 LP  0  0  0  0  0  0  0  0  0  0  0  0  # atno 4302 bound_to 2510
   -2.9939  -17.6901   13.0074 LP  0  0  0  0  0  0  0  0  0  0  0  0  # atno 4306 bound_to 3712
   -2.7101  -17.9388   14.5962 LP  0  0  0  0  0  0  0  0  0  0  0  0  # atno 4307 bound_to 3712
    3.0886  -20.8645    8.7480 LP  0  0  0  0  0  0  0  0  0  0  0  0  # atno 4314 bound_to 3832
    1.6505  -20.7183    9.5076 LP  0  0  0  0  0  0  0  0  0  0  0  0  # atno 4315 bound_to 3832
   -5.1515  -21.9147   11.2913 LP  0  0  0  0  0  0  0  0  0  0  0  0  # atno 4318 bound_to 3762
   -3.9086  -22.9712   11.2150 LP  0  0  0  0  0  0  0  0  0  0  0  0  # atno 4319 bound_to 3762
   -5.2052   -4.9567    7.8698 LP  0  0  0  0  0  0  0  0  0  0  0  0  # atno 4320 bound_to 2467
   -3.6566   -4.9729    8.3876 LP  0  0  0  0  0  0  0  0  0  0  0  0  # atno 4321 bound_to 2467

> <Gold.Score>
     Score     S(PLP)   S(hbond)     S(cho)   S(metal)  DE(clash)   DE(tors)     intcor
     41.01     -38.44       1.00       0.00       0.00       0.00       0.48       0.53

> <Gold.PLP.Fitness>
41.0112

> <Gold.PLP.PLP>
-38.4372

> <Gold.PLP.part.hbond>
-2.0000

> <Gold.PLP.part.metal>
0.0000

> <Gold.PLP.part.buried>
-7.1455

> <Gold.PLP.part.nonpolar>
-29.7223

> <Gold.PLP.part.repulsive>
0.1806

> <Gold.PLP.ligand.clash>
0.0000

> <Gold.PLP.ligand.torsion>
0.4789

> <Gold.PLP.Chemscore.Hbond>
1.0000

> <Gold.PLP.Chemscore.CHOScore>
0.0000

> <Gold.PLP.Chemscore.Metal>
0.0000

> <Gold.Chemscore.Hbonds>
donor molecule, donor type, donor heavy atom, donor atom, acceptor molecule, acceptor atom, score
      P1  H  2456  2461       L1    15  1.00

> <Gold.PLP.Chemscore.Internal.Correction>
0.5318

