#       Name:                EN300-1589650_i001
#       Creating user name   fsindt
#       Creation time:       Tue Feb 28 16:43:21 2023


#       File generated by GOLD software.
#

@<TRIPOS>MOLECULE
EN300-1589650_i001|acide_1|mol2|4847|dock19
    31    30     1
SMALL
USER_CHARGES


@<TRIPOS>ATOM
      1 C1          -0.7008 -13.6826   7.6813 C.3            1 <1>                0.0000
      2 C2           0.7216 -13.1698   7.9141 C.3            1 <1>                0.0000
      3 C3           1.4844 -13.1617   6.5879 C.3            1 <1>                0.0000
      4 C4           0.6656 -11.7490   8.4790 C.3            1 <1>                0.0000
      5 O5           1.4011 -14.0394   8.8579 O.3            1 <1>                0.0000
      6 C6           0.7796 -14.2752  10.0286 C.2            1 <1>                0.0000
      7 O7          -0.1416 -13.5655  10.3812 O.2            1 <1>                0.0000
      8 N8           1.1791 -15.2985  10.8095 N.am           1 <1>                0.0000
      9 C9           0.5027 -15.5551  12.0835 C.3            1 <1>                0.0000
     10 C10          0.1957 -17.0490  12.2060 C.3            1 <1>                0.0000
     11 C11          1.3705 -17.7570  12.8839 C.3            1 <1>                0.0000
     12 O12          1.1129 -19.1616  12.9383 O.3            1 <1>                0.0000
     13 C13          1.5393 -17.2227  14.2830 C.2            1 <1>                0.0000
     14 O14          0.7892 -16.3565  14.6994 O.co2          1 <1>                0.0000
     15 O15          2.4261 -17.6569  14.9983 O.co2          1 <1>               -1.0000
     16 H16         -0.6610 -14.6949   7.2789 H              1 <1>                0.0000
     17 H17         -1.2442 -13.6884   8.6262 H              1 <1>                0.0000
     18 H18         -1.2110 -13.0299   6.9728 H              1 <1>                0.0000
     19 H19          0.9743 -12.5089   5.8794 H              1 <1>                0.0000
     20 H20          2.4978 -12.7964   6.7538 H              1 <1>                0.0000
     21 H21          1.5243 -14.1739   6.1855 H              1 <1>                0.0000
     22 H22          0.1222 -11.7548   9.4239 H              1 <1>                0.0000
     23 H23          1.6791 -11.3837   8.6449 H              1 <1>                0.0000
     24 H24          0.1555 -11.0963   7.7706 H              1 <1>                0.0000
     25 H25          1.1486 -15.2482  12.9060 H              1 <1>                0.0000
     26 H26         -0.4279 -14.9887  12.1214 H              1 <1>                0.0000
     27 H27         -0.7054 -17.1869  12.8035 H              1 <1>                0.0000
     28 H28          0.0414 -17.4708  11.2128 H              1 <1>                0.0000
     29 H29          2.2816 -17.5765  12.3136 H              1 <1>                0.0000
     30 H30          1.9143 -15.8651  10.5280 H              1 <1>                0.0000
     31 H31          1.2439 -19.6184  12.0961 H              1 <1>                0.0000
@<TRIPOS>BOND
    1    1    2 1     
    2    1   16 1     
    3    1   17 1     
    4    1   18 1     
    5    2    3 1     
    6    2    4 1     
    7    2    5 1     
    8    3   19 1     
    9    3   20 1     
   10    3   21 1     
   11    4   22 1     
   12    4   23 1     
   13    4   24 1     
   14    5    6 1     
   15    6    7 2     
   16    6    8 am    
   17    8    9 1     
   18    8   30 1     
   19    9   10 1     
   20    9   25 1     
   21    9   26 1     
   22   10   11 1     
   23   10   27 1     
   24   10   28 1     
   25   11   12 1     
   26   11   13 1     
   27   11   29 1     
   28   12   31 1     
   29   13   14 ar    
   30   13   15 ar    
@<TRIPOS>SUBSTRUCTURE
      1 ****           1
@<TRIPOS>SET
DONOR_HYDROGENS      STATIC     ATOMS    <user>   **** ""
2 30 31
ATOM$RED        STATIC     ATOMS    COLORGROUP SYSTEM
2 30 31
@<TRIPOS>COMMENT
> <Gold.Version>
2022.2.0

> <Gold.Id.Protein>
3pbl|protein|mol2

> <Gold.Protein.RotatedTorsions>
[ 1303 1298 1297 1294 ] final  -56.59 input  179.99 | X-H torsion
[ 2461 2456 2455 2452 ] final  -28.20 input   30.03 | X-H torsion
[ 2515 2510 2509 2506 ] final    5.11 input  -89.99 | X-H torsion
[ 3721 3712 3711 3710 ] final  -88.12 input -179.91 | X-H torsion
[ 3841 3832 3831 3830 ] final -116.89 input -179.91 | X-H torsion
[ 3767 3762 3761 3758 ] final  -29.25 input  -89.99 | X-H torsion
[ 2472 2467 2466 2463 ] final   60.60 input  -89.97 | X-H torsion

> <Gold.Protein.ActiveResidues>
 VAL82   VAL86   LEU89   PHE106  VAL107  ASP110  VAL111  MET112  CYS114  THR115 
 CYS181  SER182  ILE183  PHE188  VAL189  ILE190  SER192  SER193  SER196  TRP342 
 PHE345  PHE346  HIS349  VAL350  TYR365  THR369  GLY372  TYR373 

> <Gold.Protein.RotatedAtoms>
    3.4707   -9.0249    3.7772 H   0  0  0  0  0  0  0  0  0  0  0  0  # atno 1303 bound_to 1298
    0.6436   -8.2053    7.1089 H   0  0  0  0  0  0  0  0  0  0  0  0  # atno 2461 bound_to 2456
   -4.6529   -4.8210    7.6597 H   0  0  0  0  0  0  0  0  0  0  0  0  # atno 2472 bound_to 2467
    2.5059   -7.5785    4.6652 H   0  0  0  0  0  0  0  0  0  0  0  0  # atno 2515 bound_to 2510
   -3.0111  -16.9714   14.6960 H   0  0  0  0  0  0  0  0  0  0  0  0  # atno 3721 bound_to 3712
   -5.4969  -22.3607   10.4113 H   0  0  0  0  0  0  0  0  0  0  0  0  # atno 3767 bound_to 3762
    2.1819  -19.5870    8.4773 H   0  0  0  0  0  0  0  0  0  0  0  0  # atno 3841 bound_to 3832
    4.8366   -8.8314    4.6507 LP  0  0  0  0  0  0  0  0  0  0  0  0  # atno 4297 bound_to 1298
    4.0551  -10.2652    4.6640 LP  0  0  0  0  0  0  0  0  0  0  0  0  # atno 4298 bound_to 1298
    0.9500   -9.2856    8.2949 LP  0  0  0  0  0  0  0  0  0  0  0  0  # atno 4299 bound_to 2456
    2.1440   -8.3171    7.7442 LP  0  0  0  0  0  0  0  0  0  0  0  0  # atno 4300 bound_to 2456
    2.7391   -9.1732    4.9268 LP  0  0  0  0  0  0  0  0  0  0  0  0  # atno 4301 bound_to 2510
    2.0517   -8.2478    6.0835 LP  0  0  0  0  0  0  0  0  0  0  0  0  # atno 4302 bound_to 2510
   -3.4227  -16.9204   13.1449 LP  0  0  0  0  0  0  0  0  0  0  0  0  # atno 4306 bound_to 3712
   -2.6286  -18.2121   13.7513 LP  0  0  0  0  0  0  0  0  0  0  0  0  # atno 4307 bound_to 3712
    3.0793  -20.8847    8.7718 LP  0  0  0  0  0  0  0  0  0  0  0  0  # atno 4314 bound_to 3832
    1.6297  -20.6946    9.4992 LP  0  0  0  0  0  0  0  0  0  0  0  0  # atno 4315 bound_to 3832
   -4.4453  -22.1858   11.6484 LP  0  0  0  0  0  0  0  0  0  0  0  0  # atno 4318 bound_to 3762
   -4.1854  -23.3285   10.5112 LP  0  0  0  0  0  0  0  0  0  0  0  0  # atno 4319 bound_to 3762
   -3.7229   -5.1836    8.9519 LP  0  0  0  0  0  0  0  0  0  0  0  0  # atno 4320 bound_to 2467
   -5.3411   -5.3888    9.0273 LP  0  0  0  0  0  0  0  0  0  0  0  0  # atno 4321 bound_to 2467

> <Gold.Score>
     Score     S(PLP)   S(hbond)     S(cho)   S(metal)  DE(clash)   DE(tors)     intcor
     39.87     -34.42       2.00       0.00       0.00       0.00       0.51       0.47

> <Gold.PLP.Fitness>
39.8663

> <Gold.PLP.PLP>
-34.4160

> <Gold.PLP.part.hbond>
-2.0000

> <Gold.PLP.part.metal>
0.0000

> <Gold.PLP.part.buried>
-6.5906

> <Gold.PLP.part.nonpolar>
-26.6944

> <Gold.PLP.part.repulsive>
0.2362

> <Gold.PLP.ligand.clash>
0.0000

> <Gold.PLP.ligand.torsion>
0.5084

> <Gold.PLP.Chemscore.Hbond>
2.0000

> <Gold.PLP.Chemscore.CHOScore>
0.0000

> <Gold.PLP.Chemscore.Metal>
0.0000

> <Gold.Chemscore.Hbonds>
donor molecule, donor type, donor heavy atom, donor atom, acceptor molecule, acceptor atom, score
      L1  H     8    30       P1  1227  1.00
      P1  H  2305  2313       L1    14  1.00

> <Gold.PLP.Chemscore.Internal.Correction>
0.4670

