#       Name:                EN300-1589650_i001
#       Creating user name   fsindt
#       Creation time:       Tue Feb 28 16:43:19 2023


#       File generated by GOLD software.
#

@<TRIPOS>MOLECULE
EN300-1589650_i001|acide_1|mol2|4847|dock18
    31    30     1
SMALL
USER_CHARGES


@<TRIPOS>ATOM
      1 C1          -3.0407 -10.7701  11.3860 C.3            1 <1>                0.0000
      2 C2          -1.8693 -10.5818  10.4201 C.3            1 <1>                0.0000
      3 C3          -2.3115  -9.7048   9.2469 C.3            1 <1>                0.0000
      4 C4          -0.7079  -9.9067  11.1523 C.3            1 <1>                0.0000
      5 O5          -1.4402 -11.8764   9.9217 O.3            1 <1>                0.0000
      6 C6          -0.8879 -12.7218  10.8121 C.2            1 <1>                0.0000
      7 O7          -0.9974 -12.5065  12.0030 O.2            1 <1>                0.0000
      8 N8          -0.2134 -13.8067  10.3827 N.am           1 <1>                0.0000
      9 C9           0.3876 -14.7266  11.3517 C.3            1 <1>                0.0000
     10 C10         -0.6511 -15.7646  11.7815 C.3            1 <1>                0.0000
     11 C11          0.0450 -16.9022  12.5313 C.3            1 <1>                0.0000
     12 O12         -0.9023 -17.9324  12.8198 O.3            1 <1>                0.0000
     13 C13          0.6221 -16.3754  13.8199 C.2            1 <1>                0.0000
     14 O14         -0.1109 -15.8790  14.6582 O.co2          1 <1>                0.0000
     15 O15          1.8221 -16.4456  14.0241 O.co2          1 <1>               -1.0000
     16 H16         -3.8682 -11.2511  10.8644 H              1 <1>                0.0000
     17 H17         -2.7257 -11.3949  12.2218 H              1 <1>                0.0000
     18 H18         -3.3630  -9.7983  11.7601 H              1 <1>                0.0000
     19 H19         -2.6336  -8.7330   9.6210 H              1 <1>                0.0000
     20 H20         -1.4769  -9.5707   8.5588 H              1 <1>                0.0000
     21 H21         -3.1388 -10.1858   8.7253 H              1 <1>                0.0000
     22 H22         -0.3929 -10.5315  11.9880 H              1 <1>                0.0000
     23 H23          0.1267  -9.7726  10.4640 H              1 <1>                0.0000
     24 H24         -1.0301  -8.9349  11.5264 H              1 <1>                0.0000
     25 H25          1.2382 -15.2316  10.8941 H              1 <1>                0.0000
     26 H26          0.7240 -14.1664  12.2242 H              1 <1>                0.0000
     27 H27         -1.3855 -15.2945  12.4354 H              1 <1>                0.0000
     28 H28         -1.1522 -16.1638  10.8997 H              1 <1>                0.0000
     29 H29          0.8461 -17.3079  11.9135 H              1 <1>                0.0000
     30 H30         -0.1260 -13.9787   9.4321 H              1 <1>                0.0000
     31 H31         -1.7971 -17.6075  12.9902 H              1 <1>                0.0000
@<TRIPOS>BOND
    1    1    2 1     
    2    1   16 1     
    3    1   17 1     
    4    1   18 1     
    5    2    3 1     
    6    2    4 1     
    7    2    5 1     
    8    3   19 1     
    9    3   20 1     
   10    3   21 1     
   11    4   22 1     
   12    4   23 1     
   13    4   24 1     
   14    5    6 1     
   15    6    7 2     
   16    6    8 am    
   17    8    9 1     
   18    8   30 1     
   19    9   10 1     
   20    9   25 1     
   21    9   26 1     
   22   10   11 1     
   23   10   27 1     
   24   10   28 1     
   25   11   12 1     
   26   11   13 1     
   27   11   29 1     
   28   12   31 1     
   29   13   14 ar    
   30   13   15 ar    
@<TRIPOS>SUBSTRUCTURE
      1 ****           1
@<TRIPOS>SET
DONOR_HYDROGENS      STATIC     ATOMS    <user>   **** ""
2 30 31
ATOM$RED        STATIC     ATOMS    COLORGROUP SYSTEM
2 30 31
@<TRIPOS>COMMENT
> <Gold.Version>
2022.2.0

> <Gold.Id.Protein>
3pbl|protein|mol2

> <Gold.Protein.RotatedTorsions>
[ 1303 1298 1297 1294 ] final  155.89 input  179.99 | X-H torsion
[ 2461 2456 2455 2452 ] final -167.87 input   30.03 | X-H torsion
[ 2515 2510 2509 2506 ] final  -64.68 input  -89.99 | X-H torsion
[ 3721 3712 3711 3710 ] final  -94.68 input -179.91 | X-H torsion
[ 3841 3832 3831 3830 ] final  140.52 input -179.91 | X-H torsion
[ 3767 3762 3761 3758 ] final  -72.71 input  -89.99 | X-H torsion
[ 2472 2467 2466 2463 ] final   64.32 input  -89.97 | X-H torsion

> <Gold.Protein.ActiveResidues>
 VAL82   VAL86   LEU89   PHE106  VAL107  ASP110  VAL111  MET112  CYS114  THR115 
 CYS181  SER182  ILE183  PHE188  VAL189  ILE190  SER192  SER193  SER196  TRP342 
 PHE345  PHE346  HIS349  VAL350  TYR365  THR369  GLY372  TYR373 

> <Gold.Protein.RotatedAtoms>
    4.9110   -9.2235    4.8551 H   0  0  0  0  0  0  0  0  0  0  0  0  # atno 1303 bound_to 1298
    1.2588   -9.2676    8.3848 H   0  0  0  0  0  0  0  0  0  0  0  0  # atno 2461 bound_to 2456
   -4.7133   -4.8294    7.6644 H   0  0  0  0  0  0  0  0  0  0  0  0  # atno 2472 bound_to 2467
    2.8301   -8.5735    4.4053 H   0  0  0  0  0  0  0  0  0  0  0  0  # atno 2515 bound_to 2510
   -3.0585  -16.8952   14.6540 H   0  0  0  0  0  0  0  0  0  0  0  0  # atno 3721 bound_to 3712
   -5.3841  -21.9792   10.9852 H   0  0  0  0  0  0  0  0  0  0  0  0  # atno 3767 bound_to 3762
    3.1333  -20.5152    8.7193 H   0  0  0  0  0  0  0  0  0  0  0  0  # atno 3841 bound_to 3832
    3.6981  -10.2159    4.3968 LP  0  0  0  0  0  0  0  0  0  0  0  0  # atno 4297 bound_to 1298
    3.7528   -8.6820    3.8395 LP  0  0  0  0  0  0  0  0  0  0  0  0  # atno 4298 bound_to 1298
    2.0321   -8.1239    7.5121 LP  0  0  0  0  0  0  0  0  0  0  0  0  # atno 4299 bound_to 2456
    0.4469   -8.4169    7.2514 LP  0  0  0  0  0  0  0  0  0  0  0  0  # atno 4300 bound_to 2456
    2.2922   -8.9860    5.8906 LP  0  0  0  0  0  0  0  0  0  0  0  0  # atno 4301 bound_to 2510
    2.1742   -7.4395    5.3798 LP  0  0  0  0  0  0  0  0  0  0  0  0  # atno 4302 bound_to 2510
   -3.3812  -17.0021   13.0848 LP  0  0  0  0  0  0  0  0  0  0  0  0  # atno 4306 bound_to 3712
   -2.6154  -18.2184   13.8600 LP  0  0  0  0  0  0  0  0  0  0  0  0  # atno 4307 bound_to 3712
    1.7993  -20.8601    9.5424 LP  0  0  0  0  0  0  0  0  0  0  0  0  # atno 4314 bound_to 3832
    1.8106  -19.6470    8.4492 LP  0  0  0  0  0  0  0  0  0  0  0  0  # atno 4315 bound_to 3832
   -3.9967  -22.6904   11.4710 LP  0  0  0  0  0  0  0  0  0  0  0  0  # atno 4318 bound_to 3762
   -4.7468  -23.2052   10.1149 LP  0  0  0  0  0  0  0  0  0  0  0  0  # atno 4319 bound_to 3762
   -3.6989   -5.1623    8.9000 LP  0  0  0  0  0  0  0  0  0  0  0  0  # atno 4320 bound_to 2467
   -5.3048   -5.4019    9.0746 LP  0  0  0  0  0  0  0  0  0  0  0  0  # atno 4321 bound_to 2467

> <Gold.Score>
     Score     S(PLP)   S(hbond)     S(cho)   S(metal)  DE(clash)   DE(tors)     intcor
     43.77     -38.20       2.00       0.00       0.00       0.00       0.45       0.47

> <Gold.PLP.Fitness>
43.7725

> <Gold.PLP.PLP>
-38.1973

> <Gold.PLP.part.hbond>
-2.6229

> <Gold.PLP.part.metal>
0.0000

> <Gold.PLP.part.buried>
-7.9265

> <Gold.PLP.part.nonpolar>
-29.2553

> <Gold.PLP.part.repulsive>
0.1784

> <Gold.PLP.ligand.clash>
0.0000

> <Gold.PLP.ligand.torsion>
0.4459

> <Gold.PLP.Chemscore.Hbond>
2.0000

> <Gold.PLP.Chemscore.CHOScore>
0.0000

> <Gold.PLP.Chemscore.Metal>
0.0000

> <Gold.Chemscore.Hbonds>
donor molecule, donor type, donor heavy atom, donor atom, acceptor molecule, acceptor atom, score
      L1  H    12    31       P1  3712  1.00
      P1  H  2305  2313       L1    14  1.00

> <Gold.PLP.Chemscore.Internal.Correction>
0.4670

