#       Name:                EN300-1589650_i001
#       Creating user name   fsindt
#       Creation time:       Tue Feb 28 16:43:13 2023


#       File generated by GOLD software.
#

@<TRIPOS>MOLECULE
EN300-1589650_i001|acide_1|mol2|4847|dock15
    31    30     1
SMALL
USER_CHARGES


@<TRIPOS>ATOM
      1 C1          -1.2294 -20.5895  13.1374 C.3            1 <1>                0.0000
      2 C2          -0.1217 -21.4534  12.5315 C.3            1 <1>                0.0000
      3 C3           0.4607 -22.3674  13.6114 C.3            1 <1>                0.0000
      4 C4          -0.7004 -22.3052  11.3999 C.3            1 <1>                0.0000
      5 O5           0.9265 -20.5972  12.0052 O.3            1 <1>                0.0000
      6 C6           1.4018 -19.6395  12.8234 C.2            1 <1>                0.0000
      7 O7           1.2264 -19.7231  14.0230 O.2            1 <1>                0.0000
      8 N8           2.0719 -18.5879  12.3120 N.am           1 <1>                0.0000
      9 C9           2.5891 -17.5457  13.2024 C.3            1 <1>                0.0000
     10 C10          2.3015 -16.1698  12.5980 C.3            1 <1>                0.0000
     11 C11          0.9046 -15.7095  13.0196 C.3            1 <1>                0.0000
     12 O12          0.7623 -15.8541  14.4342 O.3            1 <1>                0.0000
     13 C13         -0.1333 -16.5503  12.3218 C.2            1 <1>                0.0000
     14 O14         -0.9648 -17.1580  12.9742 O.co2          1 <1>                0.0000
     15 O15         -0.1413 -16.6227  11.1047 O.co2          1 <1>               -1.0000
     16 H16         -0.8172 -19.9826  13.9435 H              1 <1>                0.0000
     17 H17         -1.6443 -19.9383  12.3680 H              1 <1>                0.0000
     18 H18         -2.0163 -21.2321  13.5325 H              1 <1>                0.0000
     19 H19         -0.3261 -23.0101  14.0064 H              1 <1>                0.0000
     20 H20          1.2500 -22.9828  13.1797 H              1 <1>                0.0000
     21 H21          0.8730 -21.7606  14.4175 H              1 <1>                0.0000
     22 H22         -1.1153 -21.6540  10.6305 H              1 <1>                0.0000
     23 H23          0.0889 -22.9206  10.9683 H              1 <1>                0.0000
     24 H24         -1.4872 -22.9478  11.7950 H              1 <1>                0.0000
     25 H25          2.1028 -17.6243  14.1747 H              1 <1>                0.0000
     26 H26          3.6651 -17.6718  13.3230 H              1 <1>                0.0000
     27 H27          3.0427 -15.4544  12.9541 H              1 <1>                0.0000
     28 H28          2.3505 -16.2331  11.5109 H              1 <1>                0.0000
     29 H29          0.7688 -14.6633  12.7458 H              1 <1>                0.0000
     30 H30          2.2120 -18.5211  11.3546 H              1 <1>                0.0000
     31 H31          0.5393 -16.7515  14.7174 H              1 <1>                0.0000
@<TRIPOS>BOND
    1    1    2 1     
    2    1   16 1     
    3    1   17 1     
    4    1   18 1     
    5    2    3 1     
    6    2    4 1     
    7    2    5 1     
    8    3   19 1     
    9    3   20 1     
   10    3   21 1     
   11    4   22 1     
   12    4   23 1     
   13    4   24 1     
   14    5    6 1     
   15    6    7 2     
   16    6    8 am    
   17    8    9 1     
   18    8   30 1     
   19    9   10 1     
   20    9   25 1     
   21    9   26 1     
   22   10   11 1     
   23   10   27 1     
   24   10   28 1     
   25   11   12 1     
   26   11   13 1     
   27   11   29 1     
   28   12   31 1     
   29   13   14 ar    
   30   13   15 ar    
@<TRIPOS>SUBSTRUCTURE
      1 ****           1
@<TRIPOS>SET
DONOR_HYDROGENS      STATIC     ATOMS    <user>   **** ""
2 30 31
ATOM$RED        STATIC     ATOMS    COLORGROUP SYSTEM
2 30 31
@<TRIPOS>COMMENT
> <Gold.Version>
2022.2.0

> <Gold.Id.Protein>
3pbl|protein|mol2

> <Gold.Protein.RotatedTorsions>
[ 1303 1298 1297 1294 ] final  136.27 input  179.99 | X-H torsion
[ 2461 2456 2455 2452 ] final -145.70 input   30.03 | X-H torsion
[ 2515 2510 2509 2506 ] final -147.96 input  -89.99 | X-H torsion
[ 3721 3712 3711 3710 ] final   66.80 input -179.91 | X-H torsion
[ 3841 3832 3831 3830 ] final  -70.09 input -179.91 | X-H torsion
[ 3767 3762 3761 3758 ] final   48.10 input  -89.99 | X-H torsion
[ 2472 2467 2466 2463 ] final  139.79 input  -89.97 | X-H torsion

> <Gold.Protein.ActiveResidues>
 VAL82   VAL86   LEU89   PHE106  VAL107  ASP110  VAL111  MET112  CYS114  THR115 
 CYS181  SER182  ILE183  PHE188  VAL189  ILE190  SER192  SER193  SER196  TRP342 
 PHE345  PHE346  HIS349  VAL350  TYR365  THR369  GLY372  TYR373 

> <Gold.Protein.RotatedAtoms>
    4.8545   -9.5295    4.9347 H   0  0  0  0  0  0  0  0  0  0  0  0  # atno 1303 bound_to 1298
    0.9123   -9.2823    8.2785 H   0  0  0  0  0  0  0  0  0  0  0  0  # atno 2461 bound_to 2456
   -5.5051   -5.1897    8.4226 H   0  0  0  0  0  0  0  0  0  0  0  0  # atno 2472 bound_to 2467
    2.5465   -9.2476    5.4220 H   0  0  0  0  0  0  0  0  0  0  0  0  # atno 2515 bound_to 2510
   -2.6291  -17.8539   13.3050 H   0  0  0  0  0  0  0  0  0  0  0  0  # atno 3721 bound_to 3712
   -4.7350  -23.2107   10.1184 H   0  0  0  0  0  0  0  0  0  0  0  0  # atno 3767 bound_to 3762
    1.6739  -19.7285    8.9186 H   0  0  0  0  0  0  0  0  0  0  0  0  # atno 3841 bound_to 3832
    3.4980  -10.0620    4.1980 LP  0  0  0  0  0  0  0  0  0  0  0  0  # atno 4297 bound_to 1298
    4.0094   -8.5297    3.9587 LP  0  0  0  0  0  0  0  0  0  0  0  0  # atno 4298 bound_to 1298
    2.1509   -8.3447    7.7741 LP  0  0  0  0  0  0  0  0  0  0  0  0  # atno 4299 bound_to 2456
    0.6745   -8.1814    7.0957 LP  0  0  0  0  0  0  0  0  0  0  0  0  # atno 4300 bound_to 2456
    2.0398   -7.7591    5.8619 LP  0  0  0  0  0  0  0  0  0  0  0  0  # atno 4301 bound_to 2510
    2.7104   -7.9920    4.3913 LP  0  0  0  0  0  0  0  0  0  0  0  0  # atno 4302 bound_to 2510
   -2.9292  -17.5176   14.8460 LP  0  0  0  0  0  0  0  0  0  0  0  0  # atno 4306 bound_to 3712
   -3.5631  -16.5960   13.6562 LP  0  0  0  0  0  0  0  0  0  0  0  0  # atno 4307 bound_to 3712
    3.0303  -20.3045    8.2827 LP  0  0  0  0  0  0  0  0  0  0  0  0  # atno 4314 bound_to 3832
    2.2655  -21.1114    9.4787 LP  0  0  0  0  0  0  0  0  0  0  0  0  # atno 4315 bound_to 3832
   -5.3905  -21.9841   10.9744 LP  0  0  0  0  0  0  0  0  0  0  0  0  # atno 4318 bound_to 3762
   -4.0019  -22.6805   11.4780 LP  0  0  0  0  0  0  0  0  0  0  0  0  # atno 4319 bound_to 3762
   -4.0228   -4.8184    7.8471 LP  0  0  0  0  0  0  0  0  0  0  0  0  # atno 4320 bound_to 2467
   -4.1892   -5.3854    9.3694 LP  0  0  0  0  0  0  0  0  0  0  0  0  # atno 4321 bound_to 2467

> <Gold.Score>
     Score     S(PLP)   S(hbond)     S(cho)   S(metal)  DE(clash)   DE(tors)     intcor
     41.08     -34.13       2.59       0.00       0.00       0.00       0.68       0.53

> <Gold.PLP.Fitness>
41.0760

> <Gold.PLP.PLP>
-34.1317

> <Gold.PLP.part.hbond>
-2.9517

> <Gold.PLP.part.metal>
0.0000

> <Gold.PLP.part.buried>
-5.5024

> <Gold.PLP.part.nonpolar>
-25.9309

> <Gold.PLP.part.repulsive>
0.2073

> <Gold.PLP.ligand.clash>
0.0000

> <Gold.PLP.ligand.torsion>
0.6818

> <Gold.PLP.Chemscore.Hbond>
2.5920

> <Gold.PLP.Chemscore.CHOScore>
0.0000

> <Gold.PLP.Chemscore.Metal>
0.0000

> <Gold.Chemscore.Hbonds>
donor molecule, donor type, donor heavy atom, donor atom, acceptor molecule, acceptor atom, score
      L1  H     8    30       P1  1227  1.00
      P1  H  2305  2313       L1    12  1.00
      P1  H  3712  3721       L1    14  0.59

> <Gold.PLP.Chemscore.Internal.Correction>
0.5318

