#       Name:                EN300-1589650_i001
#       Creating user name   fsindt
#       Creation time:       Tue Feb 28 16:42:48 2023


#       File generated by GOLD software.
#

@<TRIPOS>MOLECULE
EN300-1589650_i001|acide_1|mol2|4847|dock1
    31    30     1
SMALL
USER_CHARGES


@<TRIPOS>ATOM
      1 C1          -0.2069 -15.3631   8.0548 C.3            1 <1>                0.0000
      2 C2           0.6671 -14.1319   8.3013 C.3            1 <1>                0.0000
      3 C3           1.4655 -13.8115   7.0360 C.3            1 <1>                0.0000
      4 C4          -0.2214 -12.9390   8.6595 C.3            1 <1>                0.0000
      5 O5           1.5825 -14.3996   9.3963 O.3            1 <1>                0.0000
      6 C6           1.0408 -14.8023  10.5612 C.2            1 <1>                0.0000
      7 O7          -0.1604 -14.7297  10.7299 O.2            1 <1>                0.0000
      8 N8           1.8309 -15.2858  11.5402 N.am           1 <1>                0.0000
      9 C9           1.2414 -15.7240  12.8079 C.3            1 <1>                0.0000
     10 C10          1.9751 -16.9702  13.3076 C.3            1 <1>                0.0000
     11 C11          1.4097 -17.3836  14.6679 C.3            1 <1>                0.0000
     12 O12          2.3059 -18.3017  15.2971 O.3            1 <1>                0.0000
     13 C13          0.0685 -18.0432  14.4750 C.2            1 <1>                0.0000
     14 O14         -0.9253 -17.5681  14.9977 O.co2          1 <1>                0.0000
     15 O15         -0.0227 -19.0518  13.7961 O.co2          1 <1>               -1.0000
     16 H16          0.4261 -16.2130   7.7996 H              1 <1>                0.0000
     17 H17         -0.7757 -15.5913   8.9561 H              1 <1>                0.0000
     18 H18         -0.8941 -15.1622   7.2328 H              1 <1>                0.0000
     19 H19          0.7784 -13.6106   6.2141 H              1 <1>                0.0000
     20 H20          2.0882 -12.9344   7.2117 H              1 <1>                0.0000
     21 H21          2.0985 -14.6614   6.7809 H              1 <1>                0.0000
     22 H22         -0.7902 -13.1672   9.5609 H              1 <1>                0.0000
     23 H23          0.4014 -12.0618   8.8351 H              1 <1>                0.0000
     24 H24         -0.9085 -12.7381   7.8375 H              1 <1>                0.0000
     25 H25          1.3339 -14.9275  13.5460 H              1 <1>                0.0000
     26 H26          0.1878 -15.9588  12.6567 H              1 <1>                0.0000
     27 H27          1.8375 -17.7832  12.5947 H              1 <1>                0.0000
     28 H28          3.0380 -16.7504  13.4075 H              1 <1>                0.0000
     29 H29          1.2934 -16.5007  15.2965 H              1 <1>                0.0000
     30 H30          2.7897 -15.3439  11.4055 H              1 <1>                0.0000
     31 H31          2.2037 -18.3557  16.2572 H              1 <1>                0.0000
@<TRIPOS>BOND
    1    1    2 1     
    2    1   16 1     
    3    1   17 1     
    4    1   18 1     
    5    2    3 1     
    6    2    4 1     
    7    2    5 1     
    8    3   19 1     
    9    3   20 1     
   10    3   21 1     
   11    4   22 1     
   12    4   23 1     
   13    4   24 1     
   14    5    6 1     
   15    6    7 2     
   16    6    8 am    
   17    8    9 1     
   18    8   30 1     
   19    9   10 1     
   20    9   25 1     
   21    9   26 1     
   22   10   11 1     
   23   10   27 1     
   24   10   28 1     
   25   11   12 1     
   26   11   13 1     
   27   11   29 1     
   28   12   31 1     
   29   13   14 ar    
   30   13   15 ar    
@<TRIPOS>SUBSTRUCTURE
      1 ****           1
@<TRIPOS>SET
DONOR_HYDROGENS      STATIC     ATOMS    <user>   **** ""
2 30 31
ATOM$RED        STATIC     ATOMS    COLORGROUP SYSTEM
2 30 31
@<TRIPOS>COMMENT
> <Gold.Version>
2022.2.0

> <Gold.Id.Protein>
3pbl|protein|mol2

> <Gold.Protein.RotatedTorsions>
[ 1303 1298 1297 1294 ] final -157.11 input  179.99 | X-H torsion
[ 2461 2456 2455 2452 ] final -151.36 input   30.03 | X-H torsion
[ 2515 2510 2509 2506 ] final   65.71 input  -89.99 | X-H torsion
[ 3721 3712 3711 3710 ] final  -19.10 input -179.91 | X-H torsion
[ 3841 3832 3831 3830 ] final  -52.33 input -179.91 | X-H torsion
[ 3767 3762 3761 3758 ] final    9.45 input  -89.99 | X-H torsion
[ 2472 2467 2466 2463 ] final   39.58 input  -89.97 | X-H torsion

> <Gold.Protein.ActiveResidues>
 VAL82   VAL86   LEU89   PHE106  VAL107  ASP110  VAL111  MET112  CYS114  THR115 
 CYS181  SER182  ILE183  PHE188  VAL189  ILE190  SER192  SER193  SER196  TRP342 
 PHE345  PHE346  HIS349  VAL350  TYR365  THR369  GLY372  TYR373 

> <Gold.Protein.RotatedAtoms>
    4.6827   -8.6236    4.4637 H   0  0  0  0  0  0  0  0  0  0  0  0  # atno 1303 bound_to 1298
    0.9981   -9.2882    8.3144 H   0  0  0  0  0  0  0  0  0  0  0  0  # atno 2461 bound_to 2456
   -4.3124   -4.7992    7.7031 H   0  0  0  0  0  0  0  0  0  0  0  0  # atno 2472 bound_to 2467
    2.1228   -7.4974    5.5318 H   0  0  0  0  0  0  0  0  0  0  0  0  # atno 2515 bound_to 2510
   -2.5493  -17.8106   14.4818 H   0  0  0  0  0  0  0  0  0  0  0  0  # atno 3721 bound_to 3712
   -5.2300  -22.8312   10.0985 H   0  0  0  0  0  0  0  0  0  0  0  0  # atno 3767 bound_to 3762
    1.5823  -19.8847    9.1151 H   0  0  0  0  0  0  0  0  0  0  0  0  # atno 3841 bound_to 3832
    4.3218  -10.1769    4.8150 LP  0  0  0  0  0  0  0  0  0  0  0  0  # atno 4297 bound_to 1298
    3.3575   -9.3212    3.8128 LP  0  0  0  0  0  0  0  0  0  0  0  0  # atno 4298 bound_to 1298
    2.1329   -8.2832    7.7064 LP  0  0  0  0  0  0  0  0  0  0  0  0  # atno 4299 bound_to 2456
    0.6067   -8.2369    7.1275 LP  0  0  0  0  0  0  0  0  0  0  0  0  # atno 4300 bound_to 2456
    2.8113   -8.4087    4.3651 LP  0  0  0  0  0  0  0  0  0  0  0  0  # atno 4301 bound_to 2510
    2.3628   -9.0935    5.7781 LP  0  0  0  0  0  0  0  0  0  0  0  0  # atno 4302 bound_to 2510
   -3.5283  -16.5772   14.1686 LP  0  0  0  0  0  0  0  0  0  0  0  0  # atno 4306 bound_to 3712
   -3.0561  -17.5865   12.9749 LP  0  0  0  0  0  0  0  0  0  0  0  0  # atno 4307 bound_to 3712
    2.8712  -20.0782    8.1785 LP  0  0  0  0  0  0  0  0  0  0  0  0  # atno 4314 bound_to 3832
    2.5303  -21.1573    9.3558 LP  0  0  0  0  0  0  0  0  0  0  0  0  # atno 4315 bound_to 3832
   -4.9769  -21.9331   11.4388 LP  0  0  0  0  0  0  0  0  0  0  0  0  # atno 4318 bound_to 3762
   -3.9207  -23.1108   11.0335 LP  0  0  0  0  0  0  0  0  0  0  0  0  # atno 4319 bound_to 3762
   -3.9219   -5.2979    9.2082 LP  0  0  0  0  0  0  0  0  0  0  0  0  # atno 4320 bound_to 2467
   -5.4826   -5.2964    8.7277 LP  0  0  0  0  0  0  0  0  0  0  0  0  # atno 4321 bound_to 2467

> <Gold.Score>
     Score     S(PLP)   S(hbond)     S(cho)   S(metal)  DE(clash)   DE(tors)     intcor
     42.18     -36.91       2.00       0.00       0.00       0.45       0.41       0.54

> <Gold.PLP.Fitness>
42.1829

> <Gold.PLP.PLP>
-36.9106

> <Gold.PLP.part.hbond>
-2.8865

> <Gold.PLP.part.metal>
0.0000

> <Gold.PLP.part.buried>
-4.4395

> <Gold.PLP.part.nonpolar>
-30.9374

> <Gold.PLP.part.repulsive>
0.2214

> <Gold.PLP.ligand.clash>
0.4471

> <Gold.PLP.ligand.torsion>
0.4111

> <Gold.PLP.Chemscore.Hbond>
2.0000

> <Gold.PLP.Chemscore.CHOScore>
0.0000

> <Gold.PLP.Chemscore.Metal>
0.0000

> <Gold.Chemscore.Hbonds>
donor molecule, donor type, donor heavy atom, donor atom, acceptor molecule, acceptor atom, score
      L1  H    12    31       P1  2287  1.00
      P1  H  3712  3721       L1    14  1.00

> <Gold.PLP.Chemscore.Internal.Correction>
0.5415

