#       Name:                EN300-1589650_i001
#       Creating user name   fsindt
#       Creation time:       Tue Feb 28 16:42:52 2023


#       File generated by GOLD software.
#

@<TRIPOS>MOLECULE
EN300-1589650_i001|acide_1|mol2|4847|dock3
    31    30     1
SMALL
USER_CHARGES


@<TRIPOS>ATOM
      1 C1          -1.5283 -10.8377   8.6908 C.3            1 <1>                0.0000
      2 C2          -2.1325 -10.6259  10.0803 C.3            1 <1>                0.0000
      3 C3          -1.2956  -9.6020  10.8498 C.3            1 <1>                0.0000
      4 C4          -3.5663 -10.1107   9.9400 C.3            1 <1>                0.0000
      5 O5          -2.1394 -11.8859  10.8021 O.3            1 <1>                0.0000
      6 C6          -0.9613 -12.5254  10.9267 C.2            1 <1>                0.0000
      7 O7           0.0710 -11.9626  10.6197 O.2            1 <1>                0.0000
      8 N8          -0.9268 -13.7899  11.3919 N.am           1 <1>                0.0000
      9 C9           0.3552 -14.4858  11.5275 C.3            1 <1>                0.0000
     10 C10          0.1141 -15.8997  12.0601 C.3            1 <1>                0.0000
     11 C11          1.4299 -16.4785  12.5841 C.3            1 <1>                0.0000
     12 O12          1.6144 -17.7944  12.0584 O.3            1 <1>                0.0000
     13 C13          1.3873 -16.5404  14.0893 C.2            1 <1>                0.0000
     14 O14          0.4469 -16.0528  14.6931 O.co2          1 <1>                0.0000
     15 O15          2.2931 -17.0781  14.7032 O.co2          1 <1>               -1.0000
     16 H16         -0.5068 -11.2048   8.7907 H              1 <1>                0.0000
     17 H17         -2.1246 -11.5671   8.1426 H              1 <1>                0.0000
     18 H18         -1.5231  -9.8919   8.1488 H              1 <1>                0.0000
     19 H19         -1.2904  -8.6562  10.3079 H              1 <1>                0.0000
     20 H20         -1.7260  -9.4512  11.8397 H              1 <1>                0.0000
     21 H21         -0.2742  -9.9691  10.9497 H              1 <1>                0.0000
     22 H22         -4.1626 -10.8402   9.3918 H              1 <1>                0.0000
     23 H23         -3.9967  -9.9599  10.9300 H              1 <1>                0.0000
     24 H24         -3.5611  -9.1649   9.3981 H              1 <1>                0.0000
     25 H25          0.8427 -14.5423  10.5543 H              1 <1>                0.0000
     26 H26          0.9933 -13.9398  12.2224 H              1 <1>                0.0000
     27 H27         -0.6149 -15.8637  12.8696 H              1 <1>                0.0000
     28 H28         -0.2659 -16.5307  11.2566 H              1 <1>                0.0000
     29 H29          2.2573 -15.8423  12.2699 H              1 <1>                0.0000
     30 H30         -1.7508 -14.2391  11.6371 H              1 <1>                0.0000
     31 H31          1.7909 -17.8170  11.1078 H              1 <1>                0.0000
@<TRIPOS>BOND
    1    1    2 1     
    2    1   16 1     
    3    1   17 1     
    4    1   18 1     
    5    2    3 1     
    6    2    4 1     
    7    2    5 1     
    8    3   19 1     
    9    3   20 1     
   10    3   21 1     
   11    4   22 1     
   12    4   23 1     
   13    4   24 1     
   14    5    6 1     
   15    6    7 2     
   16    6    8 am    
   17    8    9 1     
   18    8   30 1     
   19    9   10 1     
   20    9   25 1     
   21    9   26 1     
   22   10   11 1     
   23   10   27 1     
   24   10   28 1     
   25   11   12 1     
   26   11   13 1     
   27   11   29 1     
   28   12   31 1     
   29   13   14 ar    
   30   13   15 ar    
@<TRIPOS>SUBSTRUCTURE
      1 ****           1
@<TRIPOS>SET
DONOR_HYDROGENS      STATIC     ATOMS    <user>   **** ""
2 30 31
ATOM$RED        STATIC     ATOMS    COLORGROUP SYSTEM
2 30 31
@<TRIPOS>COMMENT
> <Gold.Version>
2022.2.0

> <Gold.Id.Protein>
3pbl|protein|mol2

> <Gold.Protein.RotatedTorsions>
[ 1303 1298 1297 1294 ] final -137.07 input  179.99 | X-H torsion
[ 2461 2456 2455 2452 ] final -134.97 input   30.03 | X-H torsion
[ 2515 2510 2509 2506 ] final   39.92 input  -89.99 | X-H torsion
[ 3721 3712 3711 3710 ] final    9.97 input -179.91 | X-H torsion
[ 3841 3832 3831 3830 ] final  112.74 input -179.91 | X-H torsion
[ 3767 3762 3761 3758 ] final  151.69 input  -89.99 | X-H torsion
[ 2472 2467 2466 2463 ] final    4.19 input  -89.97 | X-H torsion

> <Gold.Protein.ActiveResidues>
 VAL82   VAL86   LEU89   PHE106  VAL107  ASP110  VAL111  MET112  CYS114  THR115 
 CYS181  SER182  ILE183  PHE188  VAL189  ILE190  SER192  SER193  SER196  TRP342 
 PHE345  PHE346  HIS349  VAL350  TYR365  THR369  GLY372  TYR373 

> <Gold.Protein.RotatedAtoms>
    4.4580   -8.4998    4.2595 H   0  0  0  0  0  0  0  0  0  0  0  0  # atno 1303 bound_to 1298
    0.7595   -9.2529    8.1958 H   0  0  0  0  0  0  0  0  0  0  0  0  # atno 2461 bound_to 2456
   -3.8385   -4.8611    8.0196 H   0  0  0  0  0  0  0  0  0  0  0  0  # atno 2472 bound_to 2467
    2.2662   -7.4087    5.1464 H   0  0  0  0  0  0  0  0  0  0  0  0  # atno 2515 bound_to 2510
   -2.4724  -18.0041   14.1003 H   0  0  0  0  0  0  0  0  0  0  0  0  # atno 3721 bound_to 3712
   -3.9233  -22.8779   11.3128 H   0  0  0  0  0  0  0  0  0  0  0  0  # atno 3767 bound_to 3762
    3.0399  -20.7865    9.0200 H   0  0  0  0  0  0  0  0  0  0  0  0  # atno 3841 bound_to 3832
    4.5718   -9.9903    4.9164 LP  0  0  0  0  0  0  0  0  0  0  0  0  # atno 4297 bound_to 1298
    3.3322   -9.6316    3.9157 LP  0  0  0  0  0  0  0  0  0  0  0  0  # atno 4298 bound_to 1298
    2.1606   -8.4674    7.9002 LP  0  0  0  0  0  0  0  0  0  0  0  0  # atno 4299 bound_to 2456
    0.8175   -8.0881    7.0524 LP  0  0  0  0  0  0  0  0  0  0  0  0  # atno 4300 bound_to 2456
    2.8339   -8.8022    4.5127 LP  0  0  0  0  0  0  0  0  0  0  0  0  # atno 4301 bound_to 2510
    2.1967   -8.7887    6.0162 LP  0  0  0  0  0  0  0  0  0  0  0  0  # atno 4302 bound_to 2510
   -3.3804  -16.7710   14.5826 LP  0  0  0  0  0  0  0  0  0  0  0  0  # atno 4306 bound_to 3712
   -3.2929  -17.1693   13.0014 LP  0  0  0  0  0  0  0  0  0  0  0  0  # atno 4307 bound_to 3712
    1.5083  -20.5250    9.4225 LP  0  0  0  0  0  0  0  0  0  0  0  0  # atno 4314 bound_to 3832
    2.2095  -19.6688    8.2217 LP  0  0  0  0  0  0  0  0  0  0  0  0  # atno 4315 bound_to 3832
   -4.9608  -23.0736   10.0669 LP  0  0  0  0  0  0  0  0  0  0  0  0  # atno 4318 bound_to 3762
   -5.2430  -21.9236   11.1915 LP  0  0  0  0  0  0  0  0  0  0  0  0  # atno 4319 bound_to 3762
   -4.4334   -5.4335    9.4285 LP  0  0  0  0  0  0  0  0  0  0  0  0  # atno 4320 bound_to 2467
   -5.4449   -5.0988    8.1909 LP  0  0  0  0  0  0  0  0  0  0  0  0  # atno 4321 bound_to 2467

> <Gold.Score>
     Score     S(PLP)   S(hbond)     S(cho)   S(metal)  DE(clash)   DE(tors)     intcor
     42.70     -38.63       2.00       0.00       0.00       0.58       0.95       0.54

> <Gold.PLP.Fitness>
42.6958

> <Gold.PLP.PLP>
-38.6311

> <Gold.PLP.part.hbond>
-2.0000

> <Gold.PLP.part.metal>
0.0000

> <Gold.PLP.part.buried>
-4.4691

> <Gold.PLP.part.nonpolar>
-33.1136

> <Gold.PLP.part.repulsive>
0.2131

> <Gold.PLP.ligand.clash>
0.5823

> <Gold.PLP.ligand.torsion>
0.9473

> <Gold.PLP.Chemscore.Hbond>
2.0000

> <Gold.PLP.Chemscore.CHOScore>
0.0000

> <Gold.PLP.Chemscore.Metal>
0.0000

> <Gold.Chemscore.Hbonds>
donor molecule, donor type, donor heavy atom, donor atom, acceptor molecule, acceptor atom, score
      L1  H    12    31       P1  1227  1.00
      P1  H  2305  2313       L1    14  1.00

> <Gold.PLP.Chemscore.Internal.Correction>
0.5415

