#       Name:                EN300-1589650_i001
#       Creating user name   fsindt
#       Creation time:       Tue Feb 28 16:43:17 2023


#       File generated by GOLD software.
#

@<TRIPOS>MOLECULE
EN300-1589650_i001|acide_1|mol2|4847|dock17
    31    30     1
SMALL
USER_CHARGES


@<TRIPOS>ATOM
      1 C1           1.6951 -12.5993   6.6863 C.3            1 <1>                0.0000
      2 C2           0.8026 -13.2304   7.7567 C.3            1 <1>                0.0000
      3 C3           0.1057 -12.1270   8.5553 C.3            1 <1>                0.0000
      4 C4          -0.2490 -14.1167   7.0864 C.3            1 <1>                0.0000
      5 O5           1.6152 -14.0355   8.6512 O.3            1 <1>                0.0000
      6 C6           1.0056 -14.5465   9.7374 C.2            1 <1>                0.0000
      7 O7          -0.2078 -14.5624   9.8020 O.2            1 <1>                0.0000
      8 N8           1.7410 -15.0402  10.7532 N.am           1 <1>                0.0000
      9 C9           1.0776 -15.5961  11.9352 C.3            1 <1>                0.0000
     10 C10          2.1259 -16.2019  12.8707 C.3            1 <1>                0.0000
     11 C11          1.4252 -16.8947  14.0411 C.3            1 <1>                0.0000
     12 O12          2.4009 -17.5166  14.8797 O.3            1 <1>                0.0000
     13 C13          0.4781 -17.9406  13.5117 C.2            1 <1>                0.0000
     14 O14         -0.6977 -17.9170  13.8333 O.co2          1 <1>                0.0000
     15 O15          0.8877 -18.8102  12.7616 O.co2          1 <1>               -1.0000
     16 H16          2.4444 -11.9678   7.1639 H              1 <1>                0.0000
     17 H17          2.1916 -13.3854   6.1174 H              1 <1>                0.0000
     18 H18          1.0852 -11.9948   6.0149 H              1 <1>                0.0000
     19 H19         -0.5042 -11.5226   7.8839 H              1 <1>                0.0000
     20 H20         -0.5301 -12.5766   9.3179 H              1 <1>                0.0000
     21 H21          0.8549 -11.4956   9.0329 H              1 <1>                0.0000
     22 H22          0.2475 -14.9028   6.5175 H              1 <1>                0.0000
     23 H23         -0.8848 -14.5663   7.8491 H              1 <1>                0.0000
     24 H24         -0.8589 -13.5123   6.4149 H              1 <1>                0.0000
     25 H25          0.5399 -14.8041  12.4563 H              1 <1>                0.0000
     26 H26          0.3750 -16.3704  11.6270 H              1 <1>                0.0000
     27 H27          2.7243 -16.9299  12.3230 H              1 <1>                0.0000
     28 H28          2.7733 -15.4117  13.2510 H              1 <1>                0.0000
     29 H29          0.8669 -16.1576  14.6182 H              1 <1>                0.0000
     30 H30          2.7095 -15.0275  10.7016 H              1 <1>                0.0000
     31 H31          3.2853 -17.1324  14.8060 H              1 <1>                0.0000
@<TRIPOS>BOND
    1    1    2 1     
    2    1   16 1     
    3    1   17 1     
    4    1   18 1     
    5    2    3 1     
    6    2    4 1     
    7    2    5 1     
    8    3   19 1     
    9    3   20 1     
   10    3   21 1     
   11    4   22 1     
   12    4   23 1     
   13    4   24 1     
   14    5    6 1     
   15    6    7 2     
   16    6    8 am    
   17    8    9 1     
   18    8   30 1     
   19    9   10 1     
   20    9   25 1     
   21    9   26 1     
   22   10   11 1     
   23   10   27 1     
   24   10   28 1     
   25   11   12 1     
   26   11   13 1     
   27   11   29 1     
   28   12   31 1     
   29   13   14 ar    
   30   13   15 ar    
@<TRIPOS>SUBSTRUCTURE
      1 ****           1
@<TRIPOS>SET
DONOR_HYDROGENS      STATIC     ATOMS    <user>   **** ""
2 30 31
ATOM$RED        STATIC     ATOMS    COLORGROUP SYSTEM
2 30 31
@<TRIPOS>COMMENT
> <Gold.Version>
2022.2.0

> <Gold.Id.Protein>
3pbl|protein|mol2

> <Gold.Protein.RotatedTorsions>
[ 1303 1298 1297 1294 ] final -101.96 input  179.99 | X-H torsion
[ 2461 2456 2455 2452 ] final -151.45 input   30.03 | X-H torsion
[ 2515 2510 2509 2506 ] final  152.21 input  -89.99 | X-H torsion
[ 3721 3712 3711 3710 ] final   19.83 input -179.91 | X-H torsion
[ 3841 3832 3831 3830 ] final  158.77 input -179.91 | X-H torsion
[ 3767 3762 3761 3758 ] final -154.28 input  -89.99 | X-H torsion
[ 2472 2467 2466 2463 ] final  -42.25 input  -89.97 | X-H torsion

> <Gold.Protein.ActiveResidues>
 VAL82   VAL86   LEU89   PHE106  VAL107  ASP110  VAL111  MET112  CYS114  THR115 
 CYS181  SER182  ILE183  PHE188  VAL189  ILE190  SER192  SER193  SER196  TRP342 
 PHE345  PHE346  HIS349  VAL350  TYR365  THR369  GLY372  TYR373 

> <Gold.Protein.RotatedAtoms>
    3.9849   -8.5397    3.9463 H   0  0  0  0  0  0  0  0  0  0  0  0  # atno 1303 bound_to 1298
    0.9994   -9.2883    8.3149 H   0  0  0  0  0  0  0  0  0  0  0  0  # atno 2461 bound_to 2456
   -3.6434   -5.0853    8.7010 H   0  0  0  0  0  0  0  0  0  0  0  0  # atno 2472 bound_to 2467
    2.1551   -8.6764    6.0579 H   0  0  0  0  0  0  0  0  0  0  0  0  # atno 2515 bound_to 2510
   -2.4708  -18.0296   13.9535 H   0  0  0  0  0  0  0  0  0  0  0  0  # atno 3721 bound_to 3712
   -4.3794  -22.2359   11.6502 H   0  0  0  0  0  0  0  0  0  0  0  0  # atno 3767 bound_to 3762
    3.0956  -20.3014    8.5512 H   0  0  0  0  0  0  0  0  0  0  0  0  # atno 3841 bound_to 3832
    4.8638   -9.5023    4.9299 LP  0  0  0  0  0  0  0  0  0  0  0  0  # atno 4297 bound_to 1298
    3.5135  -10.0797    4.2156 LP  0  0  0  0  0  0  0  0  0  0  0  0  # atno 4298 bound_to 1298
    2.1326   -8.2823    7.7055 LP  0  0  0  0  0  0  0  0  0  0  0  0  # atno 4299 bound_to 2456
    0.6057   -8.2378    7.1280 LP  0  0  0  0  0  0  0  0  0  0  0  0  # atno 4300 bound_to 2456
    2.3169   -7.4178    5.0305 LP  0  0  0  0  0  0  0  0  0  0  0  0  # atno 4301 bound_to 2510
    2.8249   -8.9048    4.5865 LP  0  0  0  0  0  0  0  0  0  0  0  0  # atno 4302 bound_to 2510
   -3.3109  -16.8758   14.6889 LP  0  0  0  0  0  0  0  0  0  0  0  0  # atno 4306 bound_to 3712
   -3.3642  -17.0349   13.0646 LP  0  0  0  0  0  0  0  0  0  0  0  0  # atno 4307 bound_to 3712
    2.0535  -21.0260    9.5335 LP  0  0  0  0  0  0  0  0  0  0  0  0  # atno 4314 bound_to 3832
    1.5999  -19.7281    8.6523 LP  0  0  0  0  0  0  0  0  0  0  0  0  # atno 4315 bound_to 3832
   -4.2405  -23.3346   10.4500 LP  0  0  0  0  0  0  0  0  0  0  0  0  # atno 4318 bound_to 3762
   -5.5073  -22.3043   10.4712 LP  0  0  0  0  0  0  0  0  0  0  0  0  # atno 4319 bound_to 3762
   -5.1486   -5.4392    9.2259 LP  0  0  0  0  0  0  0  0  0  0  0  0  # atno 4320 bound_to 2467
   -4.9248   -4.8691    7.7122 LP  0  0  0  0  0  0  0  0  0  0  0  0  # atno 4321 bound_to 2467

> <Gold.Score>
     Score     S(PLP)   S(hbond)     S(cho)   S(metal)  DE(clash)   DE(tors)     intcor
     39.85     -37.19       0.93       0.00       0.00       0.00       0.30       0.47

> <Gold.PLP.Fitness>
39.8479

> <Gold.PLP.PLP>
-37.1911

> <Gold.PLP.part.hbond>
-2.0000

> <Gold.PLP.part.metal>
0.0000

> <Gold.PLP.part.buried>
-4.3189

> <Gold.PLP.part.nonpolar>
-32.1941

> <Gold.PLP.part.repulsive>
0.2725

> <Gold.PLP.ligand.clash>
0.0000

> <Gold.PLP.ligand.torsion>
0.2971

> <Gold.PLP.Chemscore.Hbond>
0.9280

> <Gold.PLP.Chemscore.CHOScore>
0.0000

> <Gold.PLP.Chemscore.Metal>
0.0000

> <Gold.Chemscore.Hbonds>
donor molecule, donor type, donor heavy atom, donor atom, acceptor molecule, acceptor atom, score
      P1  H  3712  3721       L1    14  0.93

> <Gold.PLP.Chemscore.Internal.Correction>
0.4670

