#       Name:                EN300-1589650_i001
#       Creating user name   fsindt
#       Creation time:       Tue Feb 28 16:43:02 2023


#       File generated by GOLD software.
#

@<TRIPOS>MOLECULE
EN300-1589650_i001|acide_1|mol2|4847|dock9
    31    30     1
SMALL
USER_CHARGES


@<TRIPOS>ATOM
      1 C1           0.3028 -18.0562  15.1338 C.3            1 <1>                0.0000
      2 C2           1.1374 -17.8061  13.8763 C.3            1 <1>                0.0000
      3 C3           2.2919 -16.8593  14.2102 C.3            1 <1>                0.0000
      4 C4           1.6986 -19.1341  13.3640 C.3            1 <1>                0.0000
      5 O5           0.3010 -17.2068  12.8517 O.3            1 <1>                0.0000
      6 C6          -0.0157 -15.9071  13.0041 C.2            1 <1>                0.0000
      7 O7          -0.0555 -15.4178  14.1157 O.2            1 <1>                0.0000
      8 N8          -0.2887 -15.1489  11.9238 N.am           1 <1>                0.0000
      9 C9          -0.6333 -13.7346  12.0897 C.3            1 <1>                0.0000
     10 C10         -0.7258 -13.0677  10.7158 C.3            1 <1>                0.0000
     11 C11         -0.9112 -11.5593  10.8927 C.3            1 <1>                0.0000
     12 O12         -2.2886 -11.2752  11.1458 O.3            1 <1>                0.0000
     13 C13         -0.4742 -10.8490   9.6374 C.2            1 <1>                0.0000
     14 O14          0.6811 -10.9369   9.2580 O.co2          1 <1>                0.0000
     15 O15         -1.2761 -10.1864   9.0014 O.co2          1 <1>               -1.0000
     16 H16         -0.0971 -17.1101  15.4988 H              1 <1>                0.0000
     17 H17         -0.5197 -18.7307  14.8959 H              1 <1>                0.0000
     18 H18          0.9306 -18.5061  15.9031 H              1 <1>                0.0000
     19 H19          2.9198 -17.3092  14.9793 H              1 <1>                0.0000
     20 H20          2.8865 -16.6811  13.3142 H              1 <1>                0.0000
     21 H21          1.8921 -15.9133  14.5751 H              1 <1>                0.0000
     22 H22          0.8761 -19.8086  13.1261 H              1 <1>                0.0000
     23 H23          2.2932 -18.9558  12.4680 H              1 <1>                0.0000
     24 H24          2.3264 -19.5840  14.1332 H              1 <1>                0.0000
     25 H25         -1.5934 -13.6520  12.5991 H              1 <1>                0.0000
     26 H26          0.1363 -13.2403  12.6825 H              1 <1>                0.0000
     27 H27          0.1905 -13.2581  10.1571 H              1 <1>                0.0000
     28 H28         -1.5760 -13.4768  10.1699 H              1 <1>                0.0000
     29 H29         -0.3087 -11.2153  11.7333 H              1 <1>                0.0000
     30 H30         -0.2569 -15.5394  11.0365 H              1 <1>                0.0000
     31 H31         -2.8390 -12.0627  11.2553 H              1 <1>                0.0000
@<TRIPOS>BOND
    1    1    2 1     
    2    1   16 1     
    3    1   17 1     
    4    1   18 1     
    5    2    3 1     
    6    2    4 1     
    7    2    5 1     
    8    3   19 1     
    9    3   20 1     
   10    3   21 1     
   11    4   22 1     
   12    4   23 1     
   13    4   24 1     
   14    5    6 1     
   15    6    7 2     
   16    6    8 am    
   17    8    9 1     
   18    8   30 1     
   19    9   10 1     
   20    9   25 1     
   21    9   26 1     
   22   10   11 1     
   23   10   27 1     
   24   10   28 1     
   25   11   12 1     
   26   11   13 1     
   27   11   29 1     
   28   12   31 1     
   29   13   14 ar    
   30   13   15 ar    
@<TRIPOS>SUBSTRUCTURE
      1 ****           1
@<TRIPOS>SET
DONOR_HYDROGENS      STATIC     ATOMS    <user>   **** ""
2 30 31
ATOM$RED        STATIC     ATOMS    COLORGROUP SYSTEM
2 30 31
@<TRIPOS>COMMENT
> <Gold.Version>
2022.2.0

> <Gold.Id.Protein>
3pbl|protein|mol2

> <Gold.Protein.RotatedTorsions>
[ 1303 1298 1297 1294 ] final  130.26 input  179.99 | X-H torsion
[ 2461 2456 2455 2452 ] final -163.43 input   30.03 | X-H torsion
[ 2515 2510 2509 2506 ] final    2.68 input  -89.99 | X-H torsion
[ 3721 3712 3711 3710 ] final   48.80 input -179.91 | X-H torsion
[ 3841 3832 3831 3830 ] final  -44.40 input -179.91 | X-H torsion
[ 3767 3762 3761 3758 ] final  145.88 input  -89.99 | X-H torsion
[ 2472 2467 2466 2463 ] final  -93.72 input  -89.97 | X-H torsion

> <Gold.Protein.ActiveResidues>
 VAL82   VAL86   LEU89   PHE106  VAL107  ASP110  VAL111  MET112  CYS114  THR115 
 CYS181  SER182  ILE183  PHE188  VAL189  ILE190  SER192  SER193  SER196  TRP342 
 PHE345  PHE346  HIS349  VAL350  TYR365  THR369  GLY372  TYR373 

> <Gold.Protein.RotatedAtoms>
    4.8196   -9.6213    4.9460 H   0  0  0  0  0  0  0  0  0  0  0  0  # atno 1303 bound_to 1298
    1.1879   -9.2787    8.3711 H   0  0  0  0  0  0  0  0  0  0  0  0  # atno 2461 bound_to 2456
   -4.0947   -5.3602    9.3263 H   0  0  0  0  0  0  0  0  0  0  0  0  # atno 2472 bound_to 2467
    2.5226   -7.6018    4.6374 H   0  0  0  0  0  0  0  0  0  0  0  0  # atno 2515 bound_to 2510
   -2.5387  -17.9770   13.5289 H   0  0  0  0  0  0  0  0  0  0  0  0  # atno 3721 bound_to 3712
   -3.9109  -22.9438   11.2448 H   0  0  0  0  0  0  0  0  0  0  0  0  # atno 3767 bound_to 3762
    1.5647  -19.9674    9.2000 H   0  0  0  0  0  0  0  0  0  0  0  0  # atno 3841 bound_to 3832
    3.4503   -9.9978    4.1399 LP  0  0  0  0  0  0  0  0  0  0  0  0  # atno 4297 bound_to 1298
    4.0920   -8.5022    4.0055 LP  0  0  0  0  0  0  0  0  0  0  0  0  # atno 4298 bound_to 1298
    2.0660   -8.1634    7.5634 LP  0  0  0  0  0  0  0  0  0  0  0  0  # atno 4299 bound_to 2456
    0.4839   -8.3663    7.2138 LP  0  0  0  0  0  0  0  0  0  0  0  0  # atno 4300 bound_to 2456
    2.7278   -9.1888    4.9619 LP  0  0  0  0  0  0  0  0  0  0  0  0  # atno 4301 bound_to 2510
    2.0463   -8.2089    6.0763 LP  0  0  0  0  0  0  0  0  0  0  0  0  # atno 4302 bound_to 2510
   -3.0771  -17.2574   14.8594 LP  0  0  0  0  0  0  0  0  0  0  0  0  # atno 4306 bound_to 3712
   -3.5196  -16.7141   13.3843 LP  0  0  0  0  0  0  0  0  0  0  0  0  # atno 4307 bound_to 3712
    2.7802  -19.9856    8.1520 LP  0  0  0  0  0  0  0  0  0  0  0  0  # atno 4314 bound_to 3832
    2.6418  -21.1543    9.2841 LP  0  0  0  0  0  0  0  0  0  0  0  0  # atno 4315 bound_to 3832
   -5.0365  -23.0155   10.0639 LP  0  0  0  0  0  0  0  0  0  0  0  0  # atno 4318 bound_to 3762
   -5.1797  -21.9158   11.2625 LP  0  0  0  0  0  0  0  0  0  0  0  0  # atno 4319 bound_to 3762
   -5.5100   -5.2257    8.5231 LP  0  0  0  0  0  0  0  0  0  0  0  0  # atno 4320 bound_to 2467
   -4.1121   -4.8076    7.7898 LP  0  0  0  0  0  0  0  0  0  0  0  0  # atno 4321 bound_to 2467

> <Gold.Score>
     Score     S(PLP)   S(hbond)     S(cho)   S(metal)  DE(clash)   DE(tors)     intcor
     38.34     -33.96       1.81       0.00       0.00       0.00       0.80       0.54

> <Gold.PLP.Fitness>
38.3437

> <Gold.PLP.PLP>
-33.9627

> <Gold.PLP.part.hbond>
-2.5000

> <Gold.PLP.part.metal>
0.0000

> <Gold.PLP.part.buried>
-5.7337

> <Gold.PLP.part.nonpolar>
-27.3252

> <Gold.PLP.part.repulsive>
0.2327

> <Gold.PLP.ligand.clash>
0.0000

> <Gold.PLP.ligand.torsion>
0.7990

> <Gold.PLP.Chemscore.Hbond>
1.8125

> <Gold.PLP.Chemscore.CHOScore>
0.0000

> <Gold.PLP.Chemscore.Metal>
0.0000

> <Gold.Chemscore.Hbonds>
donor molecule, donor type, donor heavy atom, donor atom, acceptor molecule, acceptor atom, score
      P1  H  2456  2461       L1    14  1.00
      P1  H  2305  2313       L1     7  0.81

> <Gold.PLP.Chemscore.Internal.Correction>
0.5415

