#       Name:                EN300-1589650_i001
#       Creating user name   fsindt
#       Creation time:       Tue Feb 28 16:42:53 2023


#       File generated by GOLD software.
#

@<TRIPOS>MOLECULE
EN300-1589650_i001|acide_1|mol2|4847|dock4
    31    30     1
SMALL
USER_CHARGES


@<TRIPOS>ATOM
      1 C1          -0.5797 -14.0984   7.5361 C.3            1 <1>                0.0000
      2 C2           0.5650 -13.1400   7.8704 C.3            1 <1>                0.0000
      3 C3           1.3620 -12.8346   6.6005 C.3            1 <1>                0.0000
      4 C4          -0.0076 -11.8398   8.4383 C.3            1 <1>                0.0000
      5 O5           1.4388 -13.7543   8.8541 O.3            1 <1>                0.0000
      6 C6           0.8565 -14.2613   9.9570 C.2            1 <1>                0.0000
      7 O7          -0.2021 -13.8099  10.3473 O.2            1 <1>                0.0000
      8 N8           1.4477 -15.2694  10.6283 N.am           1 <1>                0.0000
      9 C9           0.8140 -15.8211  11.8285 C.3            1 <1>                0.0000
     10 C10          1.8860 -16.1260  12.8768 C.3            1 <1>                0.0000
     11 C11          1.3973 -17.2488  13.7941 C.3            1 <1>                0.0000
     12 O12          1.1094 -18.4104  13.0133 O.3            1 <1>                0.0000
     13 C13          0.1491 -16.8038  14.5117 C.2            1 <1>                0.0000
     14 O14         -0.1106 -15.6161  14.6038 O.co2          1 <1>                0.0000
     15 O15         -0.6012 -17.6315  15.0000 O.co2          1 <1>               -1.0000
     16 H16         -0.1717 -15.0247   7.1315 H              1 <1>                0.0000
     17 H17         -1.1475 -14.3159   8.4407 H              1 <1>                0.0000
     18 H18         -1.2356 -13.6373   6.7976 H              1 <1>                0.0000
     19 H19          0.7061 -12.3734   5.8621 H              1 <1>                0.0000
     20 H20          2.1775 -12.1518   6.8388 H              1 <1>                0.0000
     21 H21          1.7700 -13.7608   6.1960 H              1 <1>                0.0000
     22 H22         -0.5754 -12.0573   9.3429 H              1 <1>                0.0000
     23 H23          0.8080 -11.1570   8.6764 H              1 <1>                0.0000
     24 H24         -0.6636 -11.3787   7.6998 H              1 <1>                0.0000
     25 H25          0.1070 -15.0963  12.2319 H              1 <1>                0.0000
     26 H26          0.2860 -16.7393  11.5712 H              1 <1>                0.0000
     27 H27          2.8036 -16.4377  12.3781 H              1 <1>                0.0000
     28 H28          2.0799 -15.2315  13.4689 H              1 <1>                0.0000
     29 H29          2.1717 -17.4844  14.5242 H              1 <1>                0.0000
     30 H30          2.2926 -15.6298  10.3168 H              1 <1>                0.0000
     31 H31          0.2819 -18.3549  12.5159 H              1 <1>                0.0000
@<TRIPOS>BOND
    1    1    2 1     
    2    1   16 1     
    3    1   17 1     
    4    1   18 1     
    5    2    3 1     
    6    2    4 1     
    7    2    5 1     
    8    3   19 1     
    9    3   20 1     
   10    3   21 1     
   11    4   22 1     
   12    4   23 1     
   13    4   24 1     
   14    5    6 1     
   15    6    7 2     
   16    6    8 am    
   17    8    9 1     
   18    8   30 1     
   19    9   10 1     
   20    9   25 1     
   21    9   26 1     
   22   10   11 1     
   23   10   27 1     
   24   10   28 1     
   25   11   12 1     
   26   11   13 1     
   27   11   29 1     
   28   12   31 1     
   29   13   14 ar    
   30   13   15 ar    
@<TRIPOS>SUBSTRUCTURE
      1 ****           1
@<TRIPOS>SET
DONOR_HYDROGENS      STATIC     ATOMS    <user>   **** ""
2 30 31
ATOM$RED        STATIC     ATOMS    COLORGROUP SYSTEM
2 30 31
@<TRIPOS>COMMENT
> <Gold.Version>
2022.2.0

> <Gold.Id.Protein>
3pbl|protein|mol2

> <Gold.Protein.RotatedTorsions>
[ 1303 1298 1297 1294 ] final   52.65 input  179.99 | X-H torsion
[ 2461 2456 2455 2452 ] final   33.24 input   30.03 | X-H torsion
[ 2515 2510 2509 2506 ] final  -24.74 input  -89.99 | X-H torsion
[ 3721 3712 3711 3710 ] final  -10.07 input -179.91 | X-H torsion
[ 3841 3832 3831 3830 ] final   -0.21 input -179.91 | X-H torsion
[ 3767 3762 3761 3758 ] final    2.43 input  -89.99 | X-H torsion
[ 2472 2467 2466 2463 ] final  166.49 input  -89.97 | X-H torsion

> <Gold.Protein.ActiveResidues>
 VAL82   VAL86   LEU89   PHE106  VAL107  ASP110  VAL111  MET112  CYS114  THR115 
 CYS181  SER182  ILE183  PHE188  VAL189  ILE190  SER192  SER193  SER196  TRP342 
 PHE345  PHE346  HIS349  VAL350  TYR365  THR369  GLY372  TYR373 

> <Gold.Protein.RotatedAtoms>
    3.9088  -10.2700    4.5648 H   0  0  0  0  0  0  0  0  0  0  0  0  # atno 1303 bound_to 1298
    1.5637   -7.9215    7.1465 H   0  0  0  0  0  0  0  0  0  0  0  0  # atno 2461 bound_to 2456
   -5.4488   -5.3306    8.8307 H   0  0  0  0  0  0  0  0  0  0  0  0  # atno 2472 bound_to 2467
    2.6936   -7.9444    4.4073 H   0  0  0  0  0  0  0  0  0  0  0  0  # atno 2515 bound_to 2510
   -2.5144  -17.8881   14.3752 H   0  0  0  0  0  0  0  0  0  0  0  0  # atno 3721 bound_to 3712
   -5.3007  -22.7465   10.1329 H   0  0  0  0  0  0  0  0  0  0  0  0  # atno 3767 bound_to 3762
    1.7349  -20.4843    9.5575 H   0  0  0  0  0  0  0  0  0  0  0  0  # atno 3841 bound_to 3832
    3.5664   -8.8765    3.7855 LP  0  0  0  0  0  0  0  0  0  0  0  0  # atno 4297 bound_to 1298
    4.8870   -8.9744    4.7412 LP  0  0  0  0  0  0  0  0  0  0  0  0  # atno 4298 bound_to 1298
    0.3437   -8.8725    7.6706 LP  0  0  0  0  0  0  0  0  0  0  0  0  # atno 4299 bound_to 2456
    1.8305   -9.0140    8.3309 LP  0  0  0  0  0  0  0  0  0  0  0  0  # atno 4300 bound_to 2456
    2.5680   -9.2541    5.3740 LP  0  0  0  0  0  0  0  0  0  0  0  0  # atno 4301 bound_to 2510
    2.0351   -7.8009    5.8944 LP  0  0  0  0  0  0  0  0  0  0  0  0  # atno 4302 bound_to 2510
   -3.4930  -16.6169   14.3097 LP  0  0  0  0  0  0  0  0  0  0  0  0  # atno 4306 bound_to 3712
   -3.1317  -17.4574   12.9570 LP  0  0  0  0  0  0  0  0  0  0  0  0  # atno 4307 bound_to 3712
    2.1478  -19.6545    8.2471 LP  0  0  0  0  0  0  0  0  0  0  0  0  # atno 4314 bound_to 3832
    3.0775  -20.8883    8.7762 LP  0  0  0  0  0  0  0  0  0  0  0  0  # atno 4315 bound_to 3832
   -4.8823  -21.9581   11.5004 LP  0  0  0  0  0  0  0  0  0  0  0  0  # atno 4318 bound_to 3762
   -3.9445  -23.1706   10.9375 LP  0  0  0  0  0  0  0  0  0  0  0  0  # atno 4319 bound_to 3762
   -4.4228   -4.8008    7.6761 LP  0  0  0  0  0  0  0  0  0  0  0  0  # atno 4320 bound_to 2467
   -3.8455   -5.2621    9.1324 LP  0  0  0  0  0  0  0  0  0  0  0  0  # atno 4321 bound_to 2467

> <Gold.Score>
     Score     S(PLP)   S(hbond)     S(cho)   S(metal)  DE(clash)   DE(tors)     intcor
     46.14     -40.48       2.56       0.00       0.00       0.00       1.28       0.54

> <Gold.PLP.Fitness>
46.1406

> <Gold.PLP.PLP>
-40.4826

> <Gold.PLP.part.hbond>
-3.0000

> <Gold.PLP.part.metal>
0.0000

> <Gold.PLP.part.buried>
-6.1390

> <Gold.PLP.part.nonpolar>
-31.8512

> <Gold.PLP.part.repulsive>
0.2350

> <Gold.PLP.ligand.clash>
0.0000

> <Gold.PLP.ligand.torsion>
1.2842

> <Gold.PLP.Chemscore.Hbond>
2.5616

> <Gold.PLP.Chemscore.CHOScore>
0.0000

> <Gold.PLP.Chemscore.Metal>
0.0000

> <Gold.Chemscore.Hbonds>
donor molecule, donor type, donor heavy atom, donor atom, acceptor molecule, acceptor atom, score
      L1  H     8    30       P1  1227  0.56
      P1  H  2305  2313       L1    14  1.00
      P1  H  3712  3721       L1    15  1.00

> <Gold.PLP.Chemscore.Internal.Correction>
0.5415

