#       Name:                EN300-1589650_i001
#       Creating user name   fsindt
#       Creation time:       Tue Feb 28 16:43:15 2023


#       File generated by GOLD software.
#

@<TRIPOS>MOLECULE
EN300-1589650_i001|acide_1|mol2|4847|dock16
    31    30     1
SMALL
USER_CHARGES


@<TRIPOS>ATOM
      1 C1          -0.6319 -10.0995  11.1315 C.3            1 <1>                0.0000
      2 C2          -1.7289 -10.7512  10.2874 C.3            1 <1>                0.0000
      3 C3          -2.9985  -9.9000  10.3556 C.3            1 <1>                0.0000
      4 C4          -1.2611 -10.8540   8.8343 C.3            1 <1>                0.0000
      5 O5          -2.0092 -12.0802  10.8007 O.3            1 <1>                0.0000
      6 C6          -0.9567 -12.8997  10.9829 C.2            1 <1>                0.0000
      7 O7           0.0710 -12.7163  10.3609 O.2            1 <1>                0.0000
      8 N8          -1.0428 -13.9236  11.8551 N.am           1 <1>                0.0000
      9 C9           0.1025 -14.8153  12.0533 C.3            1 <1>                0.0000
     10 C10         -0.2210 -15.8231  13.1582 C.3            1 <1>                0.0000
     11 C11          1.0656 -16.5201  13.6052 C.3            1 <1>                0.0000
     12 O12          1.7761 -16.9900  12.4579 O.3            1 <1>                0.0000
     13 C13          0.7216 -17.6864  14.4956 C.2            1 <1>                0.0000
     14 O14          1.6105 -18.3513  14.9997 O.co2          1 <1>                0.0000
     15 O15         -0.4455 -17.9648  14.7117 O.co2          1 <1>               -1.0000
     16 H16         -0.9652 -10.0263  12.1668 H              1 <1>                0.0000
     17 H17          0.2725 -10.7059  11.0829 H              1 <1>                0.0000
     18 H18         -0.4215  -9.1017  10.7462 H              1 <1>                0.0000
     19 H19         -2.7880  -8.9023   9.9702 H              1 <1>                0.0000
     20 H20         -3.7799 -10.3643   9.7542 H              1 <1>                0.0000
     21 H21         -3.3317  -9.8268  11.3907 H              1 <1>                0.0000
     22 H22         -0.3567 -11.4604   8.7857 H              1 <1>                0.0000
     23 H23         -2.0427 -11.3183   8.2329 H              1 <1>                0.0000
     24 H24         -1.0506  -9.8562   8.4490 H              1 <1>                0.0000
     25 H25          0.3131 -15.3479  11.1260 H              1 <1>                0.0000
     26 H26          0.9746 -14.2281  12.3411 H              1 <1>                0.0000
     27 H27         -0.6656 -15.3022  14.0062 H              1 <1>                0.0000
     28 H28         -0.9233 -16.5653  12.7787 H              1 <1>                0.0000
     29 H29          1.6888 -15.8148  14.1549 H              1 <1>                0.0000
     30 H30         -1.8631 -14.0700  12.3517 H              1 <1>                0.0000
     31 H31          2.0062 -17.9286  12.4949 H              1 <1>                0.0000
@<TRIPOS>BOND
    1    1    2 1     
    2    1   16 1     
    3    1   17 1     
    4    1   18 1     
    5    2    3 1     
    6    2    4 1     
    7    2    5 1     
    8    3   19 1     
    9    3   20 1     
   10    3   21 1     
   11    4   22 1     
   12    4   23 1     
   13    4   24 1     
   14    5    6 1     
   15    6    7 2     
   16    6    8 am    
   17    8    9 1     
   18    8   30 1     
   19    9   10 1     
   20    9   25 1     
   21    9   26 1     
   22   10   11 1     
   23   10   27 1     
   24   10   28 1     
   25   11   12 1     
   26   11   13 1     
   27   11   29 1     
   28   12   31 1     
   29   13   14 ar    
   30   13   15 ar    
@<TRIPOS>SUBSTRUCTURE
      1 ****           1
@<TRIPOS>SET
DONOR_HYDROGENS      STATIC     ATOMS    <user>   **** ""
2 30 31
ATOM$RED        STATIC     ATOMS    COLORGROUP SYSTEM
2 30 31
@<TRIPOS>COMMENT
> <Gold.Version>
2022.2.0

> <Gold.Id.Protein>
3pbl|protein|mol2

> <Gold.Protein.RotatedTorsions>
[ 1303 1298 1297 1294 ] final  -31.77 input  179.99 | X-H torsion
[ 2461 2456 2455 2452 ] final -150.34 input   30.03 | X-H torsion
[ 2515 2510 2509 2506 ] final  -47.99 input  -89.99 | X-H torsion
[ 3721 3712 3711 3710 ] final  -11.17 input -179.91 | X-H torsion
[ 3841 3832 3831 3830 ] final  167.41 input -179.91 | X-H torsion
[ 3767 3762 3761 3758 ] final  -67.84 input  -89.99 | X-H torsion
[ 2472 2467 2466 2463 ] final -169.23 input  -89.97 | X-H torsion

> <Gold.Protein.ActiveResidues>
 VAL82   VAL86   LEU89   PHE106  VAL107  ASP110  VAL111  MET112  CYS114  THR115 
 CYS181  SER182  ILE183  PHE188  VAL189  ILE190  SER192  SER193  SER196  TRP342 
 PHE345  PHE346  HIS349  VAL350  TYR365  THR369  GLY372  TYR373 

> <Gold.Protein.RotatedAtoms>
    3.3413   -9.4046    3.8346 H   0  0  0  0  0  0  0  0  0  0  0  0  # atno 1303 bound_to 1298
    0.9824   -9.2877    8.3083 H   0  0  0  0  0  0  0  0  0  0  0  0  # atno 2461 bound_to 2456
   -5.2343   -5.4225    9.1512 H   0  0  0  0  0  0  0  0  0  0  0  0  # atno 2472 bound_to 2467
    2.7938   -8.3070    4.3551 H   0  0  0  0  0  0  0  0  0  0  0  0  # atno 2515 bound_to 2510
   -2.5182  -17.8794   14.3889 H   0  0  0  0  0  0  0  0  0  0  0  0  # atno 3721 bound_to 3712
   -5.4185  -22.0067   10.9183 H   0  0  0  0  0  0  0  0  0  0  0  0  # atno 3767 bound_to 3762
    3.0510  -20.1977    8.4859 H   0  0  0  0  0  0  0  0  0  0  0  0  # atno 3841 bound_to 3832
    4.6289   -8.5809    4.4091 LP  0  0  0  0  0  0  0  0  0  0  0  0  # atno 4297 bound_to 1298
    4.3922  -10.1359    4.8481 LP  0  0  0  0  0  0  0  0  0  0  0  0  # atno 4298 bound_to 1298
    2.1368   -8.2941    7.7187 LP  0  0  0  0  0  0  0  0  0  0  0  0  # atno 4299 bound_to 2456
    0.6185   -8.2266    7.1213 LP  0  0  0  0  0  0  0  0  0  0  0  0  # atno 4300 bound_to 2456
    2.4068   -9.1466    5.7010 LP  0  0  0  0  0  0  0  0  0  0  0  0  # atno 4301 bound_to 2510
    2.0959   -7.5455    5.6196 LP  0  0  0  0  0  0  0  0  0  0  0  0  # atno 4302 bound_to 2510
   -3.4979  -16.6110   14.2929 LP  0  0  0  0  0  0  0  0  0  0  0  0  # atno 4306 bound_to 3712
   -3.1225  -17.4733   12.9579 LP  0  0  0  0  0  0  0  0  0  0  0  0  # atno 4307 bound_to 3712
    2.1827  -21.0832    9.5047 LP  0  0  0  0  0  0  0  0  0  0  0  0  # atno 4314 bound_to 3832
    1.5222  -19.7907    8.7564 LP  0  0  0  0  0  0  0  0  0  0  0  0  # atno 4315 bound_to 3832
   -4.0305  -22.6301   11.5114 LP  0  0  0  0  0  0  0  0  0  0  0  0  # atno 4318 bound_to 3762
   -4.6787  -23.2380   10.1414 LP  0  0  0  0  0  0  0  0  0  0  0  0  # atno 4319 bound_to 3762
   -4.8166   -4.8461    7.6816 LP  0  0  0  0  0  0  0  0  0  0  0  0  # atno 4320 bound_to 2467
   -3.6661   -5.1249    8.8064 LP  0  0  0  0  0  0  0  0  0  0  0  0  # atno 4321 bound_to 2467

> <Gold.Score>
     Score     S(PLP)   S(hbond)     S(cho)   S(metal)  DE(clash)   DE(tors)     intcor
     42.43     -39.92       1.00       0.00       0.00       0.00       0.51       0.53

> <Gold.PLP.Fitness>
42.4302

> <Gold.PLP.PLP>
-39.9229

> <Gold.PLP.part.hbond>
-2.0000

> <Gold.PLP.part.metal>
0.0000

> <Gold.PLP.part.buried>
-4.5095

> <Gold.PLP.part.nonpolar>
-34.5600

> <Gold.PLP.part.repulsive>
0.2345

> <Gold.PLP.ligand.clash>
0.0000

> <Gold.PLP.ligand.torsion>
0.5122

> <Gold.PLP.Chemscore.Hbond>
1.0000

> <Gold.PLP.Chemscore.CHOScore>
0.0000

> <Gold.PLP.Chemscore.Metal>
0.0000

> <Gold.Chemscore.Hbonds>
donor molecule, donor type, donor heavy atom, donor atom, acceptor molecule, acceptor atom, score
      P1  H  3712  3721       L1    15  1.00

> <Gold.PLP.Chemscore.Internal.Correction>
0.5318

