#       Name:                EN300-1589650_i001
#       Creating user name   fsindt
#       Creation time:       Tue Feb 28 16:42:55 2023


#       File generated by GOLD software.
#

@<TRIPOS>MOLECULE
EN300-1589650_i001|acide_1|mol2|4847|dock5
    31    30     1
SMALL
USER_CHARGES


@<TRIPOS>ATOM
      1 C1           1.7201 -18.9587  14.3604 C.3            1 <1>                0.0000
      2 C2           1.1489 -17.5697  14.0689 C.3            1 <1>                0.0000
      3 C3          -0.0916 -17.3366  14.9337 C.3            1 <1>                0.0000
      4 C4           2.2018 -16.5073  14.3905 C.3            1 <1>                0.0000
      5 O5           0.7845 -17.4809  12.6661 O.3            1 <1>                0.0000
      6 C6           0.4433 -16.2652  12.1990 C.2            1 <1>                0.0000
      7 O7           0.0036 -15.4242  12.9579 O.2            1 <1>                0.0000
      8 N8           0.5894 -15.9811  10.8896 N.am           1 <1>                0.0000
      9 C9           0.2181 -14.6582  10.3813 C.3            1 <1>                0.0000
     10 C10          1.2306 -14.2160   9.3228 C.3            1 <1>                0.0000
     11 C11          0.5166 -13.3988   8.2442 C.3            1 <1>                0.0000
     12 O12          1.3842 -13.2312   7.1212 O.3            1 <1>                0.0000
     13 C13          0.1475 -12.0474   8.7999 C.2            1 <1>                0.0000
     14 O14         -0.5719 -11.9675   9.7810 O.co2          1 <1>                0.0000
     15 O15          0.5686 -11.0341   8.2685 O.co2          1 <1>               -1.0000
     16 H16          0.9700 -19.7157  14.1313 H              1 <1>                0.0000
     17 H17          2.6039 -19.1248  13.7444 H              1 <1>                0.0000
     18 H18          1.9937 -19.0255  15.4135 H              1 <1>                0.0000
     19 H19          0.1819 -17.4033  15.9867 H              1 <1>                0.0000
     20 H20         -0.4986 -16.3471  14.7260 H              1 <1>                0.0000
     21 H21         -0.8418 -18.0935  14.7046 H              1 <1>                0.0000
     22 H22          3.0856 -16.6733  13.7745 H              1 <1>                0.0000
     23 H23          1.7947 -15.5177  14.1828 H              1 <1>                0.0000
     24 H24          2.4753 -16.5740  15.4436 H              1 <1>                0.0000
     25 H25         -0.7756 -14.7058   9.9362 H              1 <1>                0.0000
     26 H26          0.2145 -13.9413  11.2025 H              1 <1>                0.0000
     27 H27          2.0020 -13.6045   9.7909 H              1 <1>                0.0000
     28 H28          1.6889 -15.0947   8.8690 H              1 <1>                0.0000
     29 H29         -0.3868 -13.9218   7.9306 H              1 <1>                0.0000
     30 H30          0.9405 -16.6524  10.2838 H              1 <1>                0.0000
     31 H31          1.3354 -13.9496   6.4757 H              1 <1>                0.0000
@<TRIPOS>BOND
    1    1    2 1     
    2    1   16 1     
    3    1   17 1     
    4    1   18 1     
    5    2    3 1     
    6    2    4 1     
    7    2    5 1     
    8    3   19 1     
    9    3   20 1     
   10    3   21 1     
   11    4   22 1     
   12    4   23 1     
   13    4   24 1     
   14    5    6 1     
   15    6    7 2     
   16    6    8 am    
   17    8    9 1     
   18    8   30 1     
   19    9   10 1     
   20    9   25 1     
   21    9   26 1     
   22   10   11 1     
   23   10   27 1     
   24   10   28 1     
   25   11   12 1     
   26   11   13 1     
   27   11   29 1     
   28   12   31 1     
   29   13   14 ar    
   30   13   15 ar    
@<TRIPOS>SUBSTRUCTURE
      1 ****           1
@<TRIPOS>SET
DONOR_HYDROGENS      STATIC     ATOMS    <user>   **** ""
2 30 31
ATOM$RED        STATIC     ATOMS    COLORGROUP SYSTEM
2 30 31
@<TRIPOS>COMMENT
> <Gold.Version>
2022.2.0

> <Gold.Id.Protein>
3pbl|protein|mol2

> <Gold.Protein.RotatedTorsions>
[ 1303 1298 1297 1294 ] final  -10.56 input  179.99 | X-H torsion
[ 2461 2456 2455 2452 ] final -129.60 input   30.03 | X-H torsion
[ 2515 2510 2509 2506 ] final  -95.50 input  -89.99 | X-H torsion
[ 3721 3712 3711 3710 ] final  -36.16 input -179.91 | X-H torsion
[ 3841 3832 3831 3830 ] final  165.76 input -179.91 | X-H torsion
[ 3767 3762 3761 3758 ] final -113.85 input  -89.99 | X-H torsion
[ 2472 2467 2466 2463 ] final -115.78 input  -89.97 | X-H torsion

> <Gold.Protein.ActiveResidues>
 VAL82   VAL86   LEU89   PHE106  VAL107  ASP110  VAL111  MET112  CYS114  THR115 
 CYS181  SER182  ILE183  PHE188  VAL189  ILE190  SER192  SER193  SER196  TRP342 
 PHE345  PHE346  HIS349  VAL350  TYR365  THR369  GLY372  TYR373 

> <Gold.Protein.RotatedAtoms>
    3.3447   -9.7272    3.9621 H   0  0  0  0  0  0  0  0  0  0  0  0  # atno 1303 bound_to 1298
    0.6890   -9.2295    8.1478 H   0  0  0  0  0  0  0  0  0  0  0  0  # atno 2461 bound_to 2456
   -4.4328   -5.4342    9.4282 H   0  0  0  0  0  0  0  0  0  0  0  0  # atno 2472 bound_to 2467
    2.8088   -8.9969    4.6721 H   0  0  0  0  0  0  0  0  0  0  0  0  # atno 2515 bound_to 2510
   -2.6384  -17.6303   14.6417 H   0  0  0  0  0  0  0  0  0  0  0  0  # atno 3721 bound_to 3712
   -4.9324  -21.9430   11.4687 H   0  0  0  0  0  0  0  0  0  0  0  0  # atno 3767 bound_to 3762
    3.0608  -20.2175    8.4976 H   0  0  0  0  0  0  0  0  0  0  0  0  # atno 3841 bound_to 3832
    4.3750   -8.4819    4.1943 LP  0  0  0  0  0  0  0  0  0  0  0  0  # atno 4297 bound_to 1298
    4.6428   -9.9121    4.9353 LP  0  0  0  0  0  0  0  0  0  0  0  0  # atno 4298 bound_to 1298
    2.1535   -8.5310    7.9612 LP  0  0  0  0  0  0  0  0  0  0  0  0  # atno 4299 bound_to 2456
    0.8952   -8.0479    7.0393 LP  0  0  0  0  0  0  0  0  0  0  0  0  # atno 4300 bound_to 2456
    2.1180   -8.5583    6.0850 LP  0  0  0  0  0  0  0  0  0  0  0  0  # atno 4301 bound_to 2510
    2.3698   -7.4437    4.9184 LP  0  0  0  0  0  0  0  0  0  0  0  0  # atno 4302 bound_to 2510
   -3.5647  -16.5573   13.8876 LP  0  0  0  0  0  0  0  0  0  0  0  0  # atno 4306 bound_to 3712
   -2.9169  -17.8145   13.0713 LP  0  0  0  0  0  0  0  0  0  0  0  0  # atno 4307 bound_to 3712
    2.1577  -21.0734    9.5114 LP  0  0  0  0  0  0  0  0  0  0  0  0  # atno 4314 bound_to 3832
    1.5359  -19.7776    8.7363 LP  0  0  0  0  0  0  0  0  0  0  0  0  # atno 4315 bound_to 3832
   -3.9304  -23.1398   10.9887 LP  0  0  0  0  0  0  0  0  0  0  0  0  # atno 4318 bound_to 3762
   -5.2647  -22.7920   10.1139 LP  0  0  0  0  0  0  0  0  0  0  0  0  # atno 4319 bound_to 3762
   -5.4452   -5.0991    8.1916 LP  0  0  0  0  0  0  0  0  0  0  0  0  # atno 4320 bound_to 2467
   -3.8389   -4.8603    8.0195 LP  0  0  0  0  0  0  0  0  0  0  0  0  # atno 4321 bound_to 2467

> <Gold.Score>
     Score     S(PLP)   S(hbond)     S(cho)   S(metal)  DE(clash)   DE(tors)     intcor
     41.00     -36.55       1.89       0.00       0.00       0.00       0.88       0.54

> <Gold.PLP.Fitness>
40.9952

> <Gold.PLP.PLP>
-36.5462

> <Gold.PLP.part.hbond>
-2.0000

> <Gold.PLP.part.metal>
0.0000

> <Gold.PLP.part.buried>
-7.0335

> <Gold.PLP.part.nonpolar>
-28.3515

> <Gold.PLP.part.repulsive>
0.1308

> <Gold.PLP.ligand.clash>
0.0000

> <Gold.PLP.ligand.torsion>
0.8785

> <Gold.PLP.Chemscore.Hbond>
1.8882

> <Gold.PLP.Chemscore.CHOScore>
0.0000

> <Gold.PLP.Chemscore.Metal>
0.0000

> <Gold.Chemscore.Hbonds>
donor molecule, donor type, donor heavy atom, donor atom, acceptor molecule, acceptor atom, score
      L1  H     8    30       P1  1227  0.89
      P1  H  2456  2461       L1    15  1.00

> <Gold.PLP.Chemscore.Internal.Correction>
0.5415

