#       Name:                plp ligand
#       Creating user name   fsindt
#       Creation time:       Tue Feb 28 16:42:47 2023


#       File generated by GOLD software.
#

@<TRIPOS>MOLECULE
plp ligand
    31    30     1
SMALL
USER_CHARGES


@<TRIPOS>ATOM
      1 C1          -3.2056   1.2394  -0.6315 NONPOLAR       1 <1>                0.0000
      2 C2          -3.0691  -0.1986  -0.1274 NONPOLAR       1 <1>                0.0000
      3 C3          -3.2453  -0.2253   1.3922 NONPOLAR       1 <1>                0.0000
      4 C4          -4.1419  -1.0722  -0.7807 NONPOLAR       1 <1>                0.0000
      5 O5          -1.7539  -0.7091  -0.4711 ACCEPTOR       1 <1>                0.0000
      6 C6          -0.6922  -0.0485   0.0279 NONPOLAR       1 <1>                0.0000
      7 O7          -0.8600   0.9280   0.7314 ACCEPTOR       1 <1>                0.0000
      8 N8           0.5567  -0.4702  -0.2529 DONOR          1 <1>                0.0000
      9 C9           1.7120   0.2487   0.2901 NONPOLAR       1 <1>                0.0000
     10 C10          3.0009  -0.4310  -0.1765 NONPOLAR       1 <1>                0.0000
     11 C11          4.2074   0.3198   0.3906 NONPOLAR       1 <1>                0.0000
     12 O12          4.2524   1.6364  -0.1631 DONACC         1 <1>                0.0000
     13 C13          5.4717  -0.4187   0.0337 NONPOLAR       1 <1>                0.0000
     14 O14          6.2904   0.0973  -0.7079 ACCEPTOR       1 <1>                0.0000
     15 O15          5.6758  -1.5321   0.4867 ACCEPTOR       1 <1>               -1.0000
     16 H16         -2.4413   1.8618  -0.1661                1 <1>                0.0000
     17 H17         -3.0801   1.2584  -1.7141                1 <1>                0.0000
     18 H18         -4.1929   1.6227  -0.3735                1 <1>                0.0000
     19 H19         -4.2326   0.1579   1.6502                1 <1>                0.0000
     20 H20         -3.1480  -1.2498   1.7513                1 <1>                0.0000
     21 H21         -2.4810   0.3970   1.8576                1 <1>                0.0000
     22 H22         -4.0164  -1.0532  -1.8633                1 <1>                0.0000
     23 H23         -4.0446  -2.0967  -0.4215                1 <1>                0.0000
     24 H24         -5.1292  -0.6889  -0.5227                1 <1>                0.0000
     25 H25          1.6968   1.2799  -0.0625                1 <1>                0.0000
     26 H26          1.6685   0.2364   1.3792                1 <1>                0.0000
     27 H27          3.0161  -1.4622   0.1762                1 <1>                0.0000
     28 H28          3.0444  -0.4187  -1.2656                1 <1>                0.0000
     29 H29          4.1182   0.3845   1.4750                1 <1>                0.0000
     30 H30          0.6907  -1.2497  -0.8144                1 <1>                0.0000
     31 H31          4.3317   1.6554  -1.1267                1 <1>                0.0000
@<TRIPOS>BOND
    1    1    2 1     
    2    1   16 1     
    3    1   17 1     
    4    1   18 1     
    5    2    3 1     
    6    2    4 1     
    7    2    5 1     
    8    3   19 1     
    9    3   20 1     
   10    3   21 1     
   11    4   22 1     
   12    4   23 1     
   13    4   24 1     
   14    5    6 1     
   15    6    7 2     
   16    6    8 am    
   17    8    9 1     
   18    8   30 1     
   19    9   10 1     
   20    9   25 1     
   21    9   26 1     
   22   10   11 1     
   23   10   27 1     
   24   10   28 1     
   25   11   12 1     
   26   11   13 1     
   27   11   29 1     
   28   12   31 1     
   29   13   14 ar    
   30   13   15 ar    
@<TRIPOS>SUBSTRUCTURE
      1 ****           1
@<TRIPOS>SET
DONOR_HYDROGENS      STATIC     ATOMS    <user>   **** ""
2 30 31
ATOM$RED        STATIC     ATOMS    COLORGROUP SYSTEM
2 30 31
