#       Name:                EN300-216848_i001
#       Creating user name   aseyller
#       Creation time:       Fri Apr 21 16:31:26 2023


#       File generated by GOLD software.
#

@<TRIPOS>MOLECULE
EN300-216848_i001|aminophenols|mol2|42|dock18
    23    23     1
SMALL
USER_CHARGES


@<TRIPOS>ATOM
      1 C1          30.1175  38.0246  34.9620 C.3            1 <1>                0.0000
      2 N2          30.0473  36.8731  35.8650 N.pl3          1 <1>                0.0000
      3 S3          30.7440  36.9537  37.3651 S.o2           1 <1>                0.0000
      4 O4          31.6107  35.8321  37.4658 O.2            1 <1>                0.0000
      5 O5          31.1853  38.2943  37.5311 O.2            1 <1>                0.0000
      6 C6          29.4638  36.7012  38.5491 C.ar           1 <1>                0.0000
      7 C7          28.1409  36.8518  38.1770 C.ar           1 <1>                0.0000
      8 C8          27.1319  36.6553  39.1020 C.ar           1 <1>                0.0000
      9 C9          27.4448  36.3063  40.4052 C.ar           1 <1>                0.0000
     10 O10         26.4535  36.1124  41.3159 O.3            1 <1>                0.0000
     11 C11         28.7777  36.1539  40.7809 C.ar           1 <1>                0.0000
     12 N12         29.0999  35.8012  42.0965 N.pl3          1 <1>                0.0000
     13 C13         29.7844  36.3475  39.8463 C.ar           1 <1>                0.0000
     14 H14         31.1612  38.2611  34.7551 H              1 <1>                0.0000
     15 H15         29.6071  37.7860  34.0288 H              1 <1>                0.0000
     16 H16         29.6363  38.8833  35.4300 H              1 <1>                0.0000
     17 H17         27.8948  37.1239  37.1613 H              1 <1>                0.0000
     18 H18         26.0994  36.7745  38.8081 H              1 <1>                0.0000
     19 H19         30.8187  36.2300  40.1343 H              1 <1>                0.0000
     20 H20         29.5927  36.0635  35.5842 H              1 <1>                0.0000
     21 H21         26.7340  35.6309  42.1062 H              1 <1>                0.0000
     22 H22         28.3948  35.6625  42.7481 H              1 <1>                0.0000
     23 H23         30.0284  35.6955  42.3568 H              1 <1>                0.0000
@<TRIPOS>BOND
    1    1    2 1     
    2    1   14 1     
    3    1   15 1     
    4    1   16 1     
    5    2    3 1     
    6    2   20 1     
    7    3    4 2     
    8    3    5 2     
    9    3    6 1     
   10    6    7 ar    
   11    6   13 ar    
   12    7    8 ar    
   13    7   17 1     
   14    8    9 ar    
   15    8   18 1     
   16    9   10 1     
   17    9   11 ar    
   18   10   21 1     
   19   11   12 1     
   20   11   13 ar    
   21   12   22 1     
   22   12   23 1     
   23   13   19 1     
@<TRIPOS>SUBSTRUCTURE
      1 ****           1
@<TRIPOS>SET
DONOR_HYDROGENS      STATIC     ATOMS    <user>   **** ""
4 20 21 22 23
ATOM$RED        STATIC     ATOMS    COLORGROUP SYSTEM
4 20 21 22 23
@<TRIPOS>COMMENT
> <Gold.Version>
2022.2.0

> <Gold.Id.Protein>
1qkm|1qkm_protein|mol2

> <Gold.Protein.RotatedTorsions>
[  496  491  490  487 ] final -132.67 input  -89.99 | X-H torsion

> <Gold.Protein.ActiveResidues>
 MET295  LEU298  THR299  LEU301  ALA302  GLU305  TRP335  MET336  LEU339  MET340 
 GLY342  LEU343  ARG346  PHE356  ILE373  ILE376  PHE377  LEU380  LYS471  GLY472 
 MET473  HIS475  LEU476  LEU477  ASN478  MET479  VAL484  VAL487 

> <Gold.Protein.RotatedAtoms>
   37.1243   34.1825   40.7405 H   0  0  0  0  0  0  0  0  0  0  0  0  # atno 496  bound_to 491 

> <Gold.Score>
     Score     S(PLP)   S(hbond)     S(cho)   S(metal)  DE(clash)   DE(tors)     intcor
     36.66     -32.00       1.74       0.00       0.00       0.00       1.76       2.97

> <Gold.PLP.Fitness>
36.6644

> <Gold.PLP.PLP>
-31.9975

> <Gold.PLP.part.hbond>
-2.0000

> <Gold.PLP.part.metal>
0.0000

> <Gold.PLP.part.buried>
-2.0606

> <Gold.PLP.part.nonpolar>
-28.7135

> <Gold.PLP.part.repulsive>
0.1217

> <Gold.PLP.ligand.clash>
0.0000

> <Gold.PLP.ligand.torsion>
1.7643

> <Gold.PLP.Chemscore.Hbond>
1.7426

> <Gold.PLP.Chemscore.CHOScore>
0.0000

> <Gold.PLP.Chemscore.Metal>
0.0000

> <Gold.Chemscore.Hbonds>
donor molecule, donor type, donor heavy atom, donor atom, acceptor molecule, acceptor atom, score
      L1  H    10    21       P1   582  0.74
      L1  H    12    23       P1   470  1.00

> <Gold.PLP.Chemscore.Internal.Correction>
2.9679

