#       Name:                EN300-216848_i001
#       Creating user name   aseyller
#       Creation time:       Fri Apr 21 16:31:17 2023


#       File generated by GOLD software.
#

@<TRIPOS>MOLECULE
EN300-216848_i001|aminophenols|mol2|42|dock9
    23    23     1
SMALL
USER_CHARGES


@<TRIPOS>ATOM
      1 C1          29.3952  40.5964  36.3858 C.3            1 <1>                0.0000
      2 N2          30.5910  39.8102  36.6994 N.pl3          1 <1>                0.0000
      3 S3          30.5533  38.1595  36.5731 S.o2           1 <1>                0.0000
      4 O4          30.0270  37.8676  35.2858 O.2            1 <1>                0.0000
      5 O5          31.8197  37.6939  37.0189 O.2            1 <1>                0.0000
      6 C6          29.3693  37.5740  37.7392 C.ar           1 <1>                0.0000
      7 C7          28.0199  37.7657  37.5073 C.ar           1 <1>                0.0000
      8 C8          27.0860  37.3088  38.4191 C.ar           1 <1>                0.0000
      9 C9          27.5011  36.6567  39.5684 C.ar           1 <1>                0.0000
     10 O10         26.5837  36.2064  40.4659 O.3            1 <1>                0.0000
     11 C11         28.8607  36.4627  39.8026 C.ar           1 <1>                0.0000
     12 N12         29.2860  35.8043  40.9622 N.pl3          1 <1>                0.0000
     13 C13         29.7915  36.9192  38.8809 C.ar           1 <1>                0.0000
     14 H14         28.5816  40.3002  37.0481 H              1 <1>                0.0000
     15 H15         29.6100  41.6559  36.5256 H              1 <1>                0.0000
     16 H16         29.1042  40.4181  35.3507 H              1 <1>                0.0000
     17 H17         27.6942  38.2739  36.6118 H              1 <1>                0.0000
     18 H18         26.0326  37.4608  38.2353 H              1 <1>                0.0000
     19 H19         30.8462  36.7704  39.0594 H              1 <1>                0.0000
     20 H20         31.4048  40.2567  36.9810 H              1 <1>                0.0000
     21 H21         25.8305  35.7521  40.0640 H              1 <1>                0.0000
     22 H22         28.6338  35.4824  41.6041 H              1 <1>                0.0000
     23 H23         30.2329  35.6701  41.1241 H              1 <1>                0.0000
@<TRIPOS>BOND
    1    1    2 1     
    2    1   14 1     
    3    1   15 1     
    4    1   16 1     
    5    2    3 1     
    6    2   20 1     
    7    3    4 2     
    8    3    5 2     
    9    3    6 1     
   10    6    7 ar    
   11    6   13 ar    
   12    7    8 ar    
   13    7   17 1     
   14    8    9 ar    
   15    8   18 1     
   16    9   10 1     
   17    9   11 ar    
   18   10   21 1     
   19   11   12 1     
   20   11   13 ar    
   21   12   22 1     
   22   12   23 1     
   23   13   19 1     
@<TRIPOS>SUBSTRUCTURE
      1 ****           1
@<TRIPOS>SET
DONOR_HYDROGENS      STATIC     ATOMS    <user>   **** ""
4 20 21 22 23
ATOM$RED        STATIC     ATOMS    COLORGROUP SYSTEM
4 20 21 22 23
@<TRIPOS>COMMENT
> <Gold.Version>
2022.2.0

> <Gold.Id.Protein>
1qkm|1qkm_protein|mol2

> <Gold.Protein.RotatedTorsions>
[  496  491  490  487 ] final  116.57 input  -89.99 | X-H torsion

> <Gold.Protein.ActiveResidues>
 MET295  LEU298  THR299  LEU301  ALA302  GLU305  TRP335  MET336  LEU339  MET340 
 GLY342  LEU343  ARG346  PHE356  ILE373  ILE376  PHE377  LEU380  LYS471  GLY472 
 MET473  HIS475  LEU476  LEU477  ASN478  MET479  VAL484  VAL487 

> <Gold.Protein.RotatedAtoms>
   37.0536   32.9399   41.6682 H   0  0  0  0  0  0  0  0  0  0  0  0  # atno 496  bound_to 491 

> <Gold.Score>
     Score     S(PLP)   S(hbond)     S(cho)   S(metal)  DE(clash)   DE(tors)     intcor
     37.57     -34.67       1.00       0.00       0.00       0.00       1.54       2.97

> <Gold.PLP.Fitness>
37.5669

> <Gold.PLP.PLP>
-34.6737

> <Gold.PLP.part.hbond>
-1.0000

> <Gold.PLP.part.metal>
0.0000

> <Gold.PLP.part.buried>
-4.8052

> <Gold.PLP.part.nonpolar>
-29.1361

> <Gold.PLP.part.repulsive>
0.0857

> <Gold.PLP.ligand.clash>
0.0000

> <Gold.PLP.ligand.torsion>
1.5373

> <Gold.PLP.Chemscore.Hbond>
1.0000

> <Gold.PLP.Chemscore.CHOScore>
0.0000

> <Gold.PLP.Chemscore.Metal>
0.0000

> <Gold.Chemscore.Hbonds>
donor molecule, donor type, donor heavy atom, donor atom, acceptor molecule, acceptor atom, score
      L1  H    12    23       P1   470  1.00

> <Gold.PLP.Chemscore.Internal.Correction>
2.9679

