#       Name:                EN300-216848_i001
#       Creating user name   aseyller
#       Creation time:       Fri Apr 21 16:31:10 2023


#       File generated by GOLD software.
#

@<TRIPOS>MOLECULE
EN300-216848_i001|aminophenols|mol2|42|dock1
    23    23     1
SMALL
USER_CHARGES


@<TRIPOS>ATOM
      1 C1          29.4670  39.7965  36.8170 C.3            1 <1>                0.0000
      2 N2          30.0008  38.9488  37.8860 N.pl3          1 <1>                0.0000
      3 S3          29.7555  37.3116  37.8449 S.o2           1 <1>                0.0000
      4 O4          29.3225  37.0037  36.5269 O.2            1 <1>                0.0000
      5 O5          30.8991  36.7192  38.4455 O.2            1 <1>                0.0000
      6 C6          28.3963  36.9609  38.9098 C.ar           1 <1>                0.0000
      7 C7          27.1101  37.2763  38.5130 C.ar           1 <1>                0.0000
      8 C8          26.0394  37.0039  39.3447 C.ar           1 <1>                0.0000
      9 C9          26.2536  36.4131  40.5790 C.ar           1 <1>                0.0000
     10 O10         25.2015  36.1442  41.3979 O.3            1 <1>                0.0000
     11 C11         27.5494  36.0945  40.9795 C.ar           1 <1>                0.0000
     12 N12         27.7718  35.4974  42.2256 N.pl3          1 <1>                0.0000
     13 C13         28.6180  36.3660  40.1376 C.ar           1 <1>                0.0000
     14 H14         28.3825  39.6937  36.7791 H              1 <1>                0.0000
     15 H15         29.7266  40.8366  37.0143 H              1 <1>                0.0000
     16 H16         29.8945  39.4901  35.8624 H              1 <1>                0.0000
     17 H17         26.9410  37.7370  37.5510 H              1 <1>                0.0000
     18 H18         25.0359  37.2522  39.0319 H              1 <1>                0.0000
     19 H19         29.6238  36.1203  40.4450 H              1 <1>                0.0000
     20 H20         30.4981  39.3465  38.6177 H              1 <1>                0.0000
     21 H21         25.4128  35.5429  42.1252 H              1 <1>                0.0000
     22 H22         27.0233  35.3047  42.8117 H              1 <1>                0.0000
     23 H23         28.6746  35.2762  42.5033 H              1 <1>                0.0000
@<TRIPOS>BOND
    1    1    2 1     
    2    1   14 1     
    3    1   15 1     
    4    1   16 1     
    5    2    3 1     
    6    2   20 1     
    7    3    4 2     
    8    3    5 2     
    9    3    6 1     
   10    6    7 ar    
   11    6   13 ar    
   12    7    8 ar    
   13    7   17 1     
   14    8    9 ar    
   15    8   18 1     
   16    9   10 1     
   17    9   11 ar    
   18   10   21 1     
   19   11   12 1     
   20   11   13 ar    
   21   12   22 1     
   22   12   23 1     
   23   13   19 1     
@<TRIPOS>SUBSTRUCTURE
      1 ****           1
@<TRIPOS>SET
DONOR_HYDROGENS      STATIC     ATOMS    <user>   **** ""
4 20 21 22 23
ATOM$RED        STATIC     ATOMS    COLORGROUP SYSTEM
4 20 21 22 23
@<TRIPOS>COMMENT
> <Gold.Version>
2022.2.0

> <Gold.Id.Protein>
1qkm|1qkm_protein|mol2

> <Gold.Protein.RotatedTorsions>
[  496  491  490  487 ] final   50.53 input  -89.99 | X-H torsion

> <Gold.Protein.ActiveResidues>
 MET295  LEU298  THR299  LEU301  ALA302  GLU305  TRP335  MET336  LEU339  MET340 
 GLY342  LEU343  ARG346  PHE356  ILE373  ILE376  PHE377  LEU380  LYS471  GLY472 
 MET473  HIS475  LEU476  LEU477  ASN478  MET479  VAL484  VAL487 

> <Gold.Protein.RotatedAtoms>
   36.4768   33.4469   42.3515 H   0  0  0  0  0  0  0  0  0  0  0  0  # atno 496  bound_to 491 

> <Gold.Score>
     Score     S(PLP)   S(hbond)     S(cho)   S(metal)  DE(clash)   DE(tors)     intcor
     44.84     -38.89       2.00       0.00       0.00       0.00       1.51       2.97

> <Gold.PLP.Fitness>
44.8423

> <Gold.PLP.PLP>
-38.8904

> <Gold.PLP.part.hbond>
-2.5899

> <Gold.PLP.part.metal>
0.0000

> <Gold.PLP.part.buried>
-3.5461

> <Gold.PLP.part.nonpolar>
-32.8079

> <Gold.PLP.part.repulsive>
0.1237

> <Gold.PLP.ligand.clash>
0.0000

> <Gold.PLP.ligand.torsion>
1.5081

> <Gold.PLP.Chemscore.Hbond>
2.0000

> <Gold.PLP.Chemscore.CHOScore>
0.0000

> <Gold.PLP.Chemscore.Metal>
0.0000

> <Gold.Chemscore.Hbonds>
donor molecule, donor type, donor heavy atom, donor atom, acceptor molecule, acceptor atom, score
      L1  H    10    21       P1   582  1.00
      L1  H    12    22       P1   582  1.00

> <Gold.PLP.Chemscore.Internal.Correction>
2.9680

