#       Name:                EN300-216848_i001
#       Creating user name   aseyller
#       Creation time:       Fri Apr 21 16:31:09 2023


#       File generated by GOLD software.
#

@<TRIPOS>MOLECULE
EN300-216848_i001
    23    23     1
SMALL
USER_CHARGES


@<TRIPOS>ATOM
      1 C1          -2.5276   1.3224   1.3216 C.3            1 <1>                0.0000
      2 N2          -2.8124  -0.0189   0.8056 N.pl3          1 <1>                0.0000
      3 S3          -2.1553  -0.5093  -0.6331 S.o2           1 <1>                0.0000
      4 O4          -2.5864  -1.8481  -0.8355 O.2            1 <1>                0.0000
      5 O5          -2.4020   0.5358  -1.5639 O.2            1 <1>                0.0000
      6 C6          -0.4085  -0.5770  -0.4126 C.ar           1 <1>                0.0000
      7 C7           0.1868  -1.7463   0.0229 C.ar           1 <1>                0.0000
      8 C8           1.5572  -1.8053   0.1982 C.ar           1 <1>                0.0000
      9 C9           2.3378  -0.6914  -0.0629 C.ar           1 <1>                0.0000
     10 O10          3.6858  -0.7481   0.1087 O.3            1 <1>                0.0000
     11 C11          1.7388   0.4872  -0.5022 C.ar           1 <1>                0.0000
     12 N12          2.5226   1.6160  -0.7677 N.pl3          1 <1>                0.0000
     13 C13          0.3640   0.5374  -0.6808 C.ar           1 <1>                0.0000
     14 H14         -2.8742   2.0681   0.6061 H              1 <1>                0.0000
     15 H15         -3.0432   1.4632   2.2716 H              1 <1>                0.0000
     16 H16         -1.4537   1.4338   1.4710 H              1 <1>                0.0000
     17 H17         -0.4201  -2.6160   0.2270 H              1 <1>                0.0000
     18 H18          2.0190  -2.7202   0.5392 H              1 <1>                0.0000
     19 H19         -0.1035   1.4495  -1.0213 H              1 <1>                0.0000
     20 H20         -3.3858  -0.6197   1.3068 H              1 <1>                0.0000
     21 H21          4.1712  -1.0279  -0.6795 H              1 <1>                0.0000
     22 H22          3.4843   1.5784  -0.6459 H              1 <1>                0.0000
     23 H23          2.1042   2.4360  -1.0734 H              1 <1>                0.0000
@<TRIPOS>BOND
    1    1    2 1     
    2    1   14 1     
    3    1   15 1     
    4    1   16 1     
    5    2    3 1     
    6    2   20 1     
    7    3    4 2     
    8    3    5 2     
    9    3    6 1     
   10    6    7 ar    
   11    6   13 ar    
   12    7    8 ar    
   13    7   17 1     
   14    8    9 ar    
   15    8   18 1     
   16    9   10 1     
   17    9   11 ar    
   18   10   21 1     
   19   11   12 1     
   20   11   13 ar    
   21   12   22 1     
   22   12   23 1     
   23   13   19 1     
@<TRIPOS>SUBSTRUCTURE
      1 ****           1
@<TRIPOS>SET
DONOR_HYDROGENS      STATIC     ATOMS    <user>   **** ""
4 20 21 22 23
ATOM$RED        STATIC     ATOMS    COLORGROUP SYSTEM
4 20 21 22 23
