#       Name:                EN300-216848_i001
#       Creating user name   aseyller
#       Creation time:       Fri Apr 21 16:31:13 2023


#       File generated by GOLD software.
#

@<TRIPOS>MOLECULE
EN300-216848_i001|aminophenols|mol2|42|dock5
    23    23     1
SMALL
USER_CHARGES


@<TRIPOS>ATOM
      1 C1          29.0756  39.5990  36.1194 C.3            1 <1>                0.0000
      2 N2          30.1150  39.1128  37.0303 N.pl3          1 <1>                0.0000
      3 S3          30.3174  37.4858  37.2627 S.o2           1 <1>                0.0000
      4 O4          29.9429  36.8569  36.0447 O.2            1 <1>                0.0000
      5 O5          31.5958  37.3218  37.8611 O.2            1 <1>                0.0000
      6 C6          29.1355  36.9800  38.4677 C.ar           1 <1>                0.0000
      7 C7          27.7892  36.9753  38.1536 C.ar           1 <1>                0.0000
      8 C8          26.8570  36.5798  39.0952 C.ar           1 <1>                0.0000
      9 C9          27.2707  36.1864  40.3571 C.ar           1 <1>                0.0000
     10 O10         26.3550  35.7968  41.2842 O.3            1 <1>                0.0000
     11 C11         28.6272  36.1904  40.6744 C.ar           1 <1>                0.0000
     12 N12         29.0511  35.7938  41.9480 N.pl3          1 <1>                0.0000
     13 C13         29.5571  36.5835  39.7229 C.ar           1 <1>                0.0000
     14 H14         28.1000  39.2594  36.4671 H              1 <1>                0.0000
     15 H15         29.0939  40.6886  36.0960 H              1 <1>                0.0000
     16 H16         29.2597  39.2108  35.1177 H              1 <1>                0.0000
     17 H17         27.4645  37.2817  37.1701 H              1 <1>                0.0000
     18 H18         25.8058  36.5780  38.8468 H              1 <1>                0.0000
     19 H19         30.6095  36.5876  39.9656 H              1 <1>                0.0000
     20 H20         30.6847  39.7440  37.4972 H              1 <1>                0.0000
     21 H21         26.7341  35.5932  42.1502 H              1 <1>                0.0000
     22 H22         28.4001  35.5157  42.6111 H              1 <1>                0.0000
     23 H23         29.9960  35.7972  42.1676 H              1 <1>                0.0000
@<TRIPOS>BOND
    1    1    2 1     
    2    1   14 1     
    3    1   15 1     
    4    1   16 1     
    5    2    3 1     
    6    2   20 1     
    7    3    4 2     
    8    3    5 2     
    9    3    6 1     
   10    6    7 ar    
   11    6   13 ar    
   12    7    8 ar    
   13    7   17 1     
   14    8    9 ar    
   15    8   18 1     
   16    9   10 1     
   17    9   11 ar    
   18   10   21 1     
   19   11   12 1     
   20   11   13 ar    
   21   12   22 1     
   22   12   23 1     
   23   13   19 1     
@<TRIPOS>SUBSTRUCTURE
      1 ****           1
@<TRIPOS>SET
DONOR_HYDROGENS      STATIC     ATOMS    <user>   **** ""
4 20 21 22 23
ATOM$RED        STATIC     ATOMS    COLORGROUP SYSTEM
4 20 21 22 23
@<TRIPOS>COMMENT
> <Gold.Version>
2022.2.0

> <Gold.Id.Protein>
1qkm|1qkm_protein|mol2

> <Gold.Protein.RotatedTorsions>
[  496  491  490  487 ] final  -38.68 input  -89.99 | X-H torsion

> <Gold.Protein.ActiveResidues>
 MET295  LEU298  THR299  LEU301  ALA302  GLU305  TRP335  MET336  LEU339  MET340 
 GLY342  LEU343  ARG346  PHE356  ILE373  ILE376  PHE377  LEU380  LYS471  GLY472 
 MET473  HIS475  LEU476  LEU477  ASN478  MET479  VAL484  VAL487 

> <Gold.Protein.RotatedAtoms>
   36.3561   34.6409   41.7907 H   0  0  0  0  0  0  0  0  0  0  0  0  # atno 496  bound_to 491 

> <Gold.Score>
     Score     S(PLP)   S(hbond)     S(cho)   S(metal)  DE(clash)   DE(tors)     intcor
     41.03     -36.17       1.64       0.00       0.00       0.00       1.52       2.97

> <Gold.PLP.Fitness>
41.0259

> <Gold.PLP.PLP>
-36.1667

> <Gold.PLP.part.hbond>
-2.0000

> <Gold.PLP.part.metal>
0.0000

> <Gold.PLP.part.buried>
-4.1113

> <Gold.PLP.part.nonpolar>
-30.3603

> <Gold.PLP.part.repulsive>
0.1127

> <Gold.PLP.ligand.clash>
0.0000

> <Gold.PLP.ligand.torsion>
1.5207

> <Gold.PLP.Chemscore.Hbond>
1.6443

> <Gold.PLP.Chemscore.CHOScore>
0.0000

> <Gold.PLP.Chemscore.Metal>
0.0000

> <Gold.Chemscore.Hbonds>
donor molecule, donor type, donor heavy atom, donor atom, acceptor molecule, acceptor atom, score
      L1  H    10    21       P1   582  0.64
      L1  H    12    23       P1   470  1.00

> <Gold.PLP.Chemscore.Internal.Correction>
2.9679

