#       Name:                EN300-216848_i001
#       Creating user name   aseyller
#       Creation time:       Fri Apr 21 16:31:16 2023


#       File generated by GOLD software.
#

@<TRIPOS>MOLECULE
EN300-216848_i001|aminophenols|mol2|42|dock8
    23    23     1
SMALL
USER_CHARGES


@<TRIPOS>ATOM
      1 C1          33.6080  36.3999  35.0470 C.3            1 <1>                0.0000
      2 N2          32.2325  36.6089  34.5876 N.pl3          1 <1>                0.0000
      3 S3          31.3052  37.8013  35.2662 S.o2           1 <1>                0.0000
      4 O4          32.1667  38.9130  35.4692 O.2            1 <1>                0.0000
      5 O5          30.1142  37.8717  34.4941 O.2            1 <1>                0.0000
      6 C6          30.8276  37.2430  36.8676 C.ar           1 <1>                0.0000
      7 C7          29.8071  37.8837  37.5454 C.ar           1 <1>                0.0000
      8 C8          29.4282  37.4503  38.8027 C.ar           1 <1>                0.0000
      9 C9          30.0710  36.3714  39.3866 C.ar           1 <1>                0.0000
     10 O10         29.6991  35.9438  40.6230 O.3            1 <1>                0.0000
     11 C11         31.0993  35.7250  38.7043 C.ar           1 <1>                0.0000
     12 N12         31.7525  34.6341  39.2894 N.pl3          1 <1>                0.0000
     13 C13         31.4705  36.1620  37.4411 C.ar           1 <1>                0.0000
     14 H14         33.6032  36.1572  36.1096 H              1 <1>                0.0000
     15 H15         34.0565  35.5783  34.4886 H              1 <1>                0.0000
     16 H16         34.1874  37.3087  34.8845 H              1 <1>                0.0000
     17 H17         29.3045  38.7251  37.0917 H              1 <1>                0.0000
     18 H18         28.6309  37.9535  39.3296 H              1 <1>                0.0000
     19 H19         32.2672  35.6631  36.9093 H              1 <1>                0.0000
     20 H20         31.8652  36.0489  33.8860 H              1 <1>                0.0000
     21 H21         30.4047  35.5022  41.1152 H              1 <1>                0.0000
     22 H22         31.4894  34.3273  40.1712 H              1 <1>                0.0000
     23 H23         32.4684  34.1850  38.8132 H              1 <1>                0.0000
@<TRIPOS>BOND
    1    1    2 1     
    2    1   14 1     
    3    1   15 1     
    4    1   16 1     
    5    2    3 1     
    6    2   20 1     
    7    3    4 2     
    8    3    5 2     
    9    3    6 1     
   10    6    7 ar    
   11    6   13 ar    
   12    7    8 ar    
   13    7   17 1     
   14    8    9 ar    
   15    8   18 1     
   16    9   10 1     
   17    9   11 ar    
   18   10   21 1     
   19   11   12 1     
   20   11   13 ar    
   21   12   22 1     
   22   12   23 1     
   23   13   19 1     
@<TRIPOS>SUBSTRUCTURE
      1 ****           1
@<TRIPOS>SET
DONOR_HYDROGENS      STATIC     ATOMS    <user>   **** ""
4 20 21 22 23
ATOM$RED        STATIC     ATOMS    COLORGROUP SYSTEM
4 20 21 22 23
@<TRIPOS>COMMENT
> <Gold.Version>
2022.2.0

> <Gold.Id.Protein>
1qkm|1qkm_protein|mol2

> <Gold.Protein.RotatedTorsions>
[  496  491  490  487 ] final  124.77 input  -89.99 | X-H torsion

> <Gold.Protein.ActiveResidues>
 MET295  LEU298  THR299  LEU301  ALA302  GLU305  TRP335  MET336  LEU339  MET340 
 GLY342  LEU343  ARG346  PHE356  ILE373  ILE376  PHE377  LEU380  LYS471  GLY472 
 MET473  HIS475  LEU476  LEU477  ASN478  MET479  VAL484  VAL487 

> <Gold.Protein.RotatedAtoms>
   37.1164   32.9532   41.5496 H   0  0  0  0  0  0  0  0  0  0  0  0  # atno 496  bound_to 491 

> <Gold.Score>
     Score     S(PLP)   S(hbond)     S(cho)   S(metal)  DE(clash)   DE(tors)     intcor
     37.74     -30.98       2.43       0.00       0.00       0.00       1.75       2.97

> <Gold.PLP.Fitness>
37.7356

> <Gold.PLP.PLP>
-30.9808

> <Gold.PLP.part.hbond>
-3.0000

> <Gold.PLP.part.metal>
0.0000

> <Gold.PLP.part.buried>
-0.5320

> <Gold.PLP.part.nonpolar>
-28.2983

> <Gold.PLP.part.repulsive>
0.2351

> <Gold.PLP.ligand.clash>
0.0000

> <Gold.PLP.ligand.torsion>
1.7477

> <Gold.PLP.Chemscore.Hbond>
2.4274

> <Gold.PLP.Chemscore.CHOScore>
0.0000

> <Gold.PLP.Chemscore.Metal>
0.0000

> <Gold.Chemscore.Hbonds>
donor molecule, donor type, donor heavy atom, donor atom, acceptor molecule, acceptor atom, score
      L1  H     2    20       P1  3187  0.84
      L1  H    10    21       P1   470  1.00
      L1  H    12    22       P1   470  0.58

> <Gold.PLP.Chemscore.Internal.Correction>
2.9679

