#       Name:                EN300-216848_i001
#       Creating user name   aseyller
#       Creation time:       Fri Apr 21 16:31:22 2023


#       File generated by GOLD software.
#

@<TRIPOS>MOLECULE
EN300-216848_i001|aminophenols|mol2|42|dock14
    23    23     1
SMALL
USER_CHARGES


@<TRIPOS>ATOM
      1 C1          31.9760  34.9797  38.4724 C.3            1 <1>                0.0000
      2 N2          31.5002  35.5730  37.2202 N.pl3          1 <1>                0.0000
      3 S3          30.5225  36.9091  37.2560 S.o2           1 <1>                0.0000
      4 O4          31.3203  37.9771  37.7481 O.2            1 <1>                0.0000
      5 O5          29.8547  36.9514  36.0023 O.2            1 <1>                0.0000
      6 C6          29.2811  36.6146  38.4712 C.ar           1 <1>                0.0000
      7 C7          27.9456  36.6535  38.1162 C.ar           1 <1>                0.0000
      8 C8          26.9668  36.4236  39.0656 C.ar           1 <1>                0.0000
      9 C9          27.3229  36.1530  40.3764 C.ar           1 <1>                0.0000
     10 O10         26.3613  35.9263  41.3112 O.3            1 <1>                0.0000
     11 C11         28.6685  36.1132  40.7350 C.ar           1 <1>                0.0000
     12 N12         29.0343  35.8401  42.0581 N.pl3          1 <1>                0.0000
     13 C13         29.6450  36.3396  39.7760 C.ar           1 <1>                0.0000
     14 H14         31.1224  34.6652  39.0729 H              1 <1>                0.0000
     15 H15         32.6020  34.1155  38.2501 H              1 <1>                0.0000
     16 H16         32.5576  35.7169  39.0258 H              1 <1>                0.0000
     17 H17         27.6658  36.8643  37.0946 H              1 <1>                0.0000
     18 H18         25.9243  36.4554  38.7850 H              1 <1>                0.0000
     19 H19         30.6891  36.3094  40.0507 H              1 <1>                0.0000
     20 H20         31.7580  35.1833  36.3702 H              1 <1>                0.0000
     21 H21         26.6995  35.5742  42.1459 H              1 <1>                0.0000
     22 H22         28.3505  35.6783  42.7269 H              1 <1>                0.0000
     23 H23         29.9716  35.8128  42.3065 H              1 <1>                0.0000
@<TRIPOS>BOND
    1    1    2 1     
    2    1   14 1     
    3    1   15 1     
    4    1   16 1     
    5    2    3 1     
    6    2   20 1     
    7    3    4 2     
    8    3    5 2     
    9    3    6 1     
   10    6    7 ar    
   11    6   13 ar    
   12    7    8 ar    
   13    7   17 1     
   14    8    9 ar    
   15    8   18 1     
   16    9   10 1     
   17    9   11 ar    
   18   10   21 1     
   19   11   12 1     
   20   11   13 ar    
   21   12   22 1     
   22   12   23 1     
   23   13   19 1     
@<TRIPOS>SUBSTRUCTURE
      1 ****           1
@<TRIPOS>SET
DONOR_HYDROGENS      STATIC     ATOMS    <user>   **** ""
4 20 21 22 23
ATOM$RED        STATIC     ATOMS    COLORGROUP SYSTEM
4 20 21 22 23
@<TRIPOS>COMMENT
> <Gold.Version>
2022.2.0

> <Gold.Id.Protein>
1qkm|1qkm_protein|mol2

> <Gold.Protein.RotatedTorsions>
[  496  491  490  487 ] final -154.77 input  -89.99 | X-H torsion

> <Gold.Protein.ActiveResidues>
 MET295  LEU298  THR299  LEU301  ALA302  GLU305  TRP335  MET336  LEU339  MET340 
 GLY342  LEU343  ARG346  PHE356  ILE373  ILE376  PHE377  LEU380  LYS471  GLY472 
 MET473  HIS475  LEU476  LEU477  ASN478  MET479  VAL484  VAL487 

> <Gold.Protein.RotatedAtoms>
   37.2540   33.8452   40.7313 H   0  0  0  0  0  0  0  0  0  0  0  0  # atno 496  bound_to 491 

> <Gold.Score>
     Score     S(PLP)   S(hbond)     S(cho)   S(metal)  DE(clash)   DE(tors)     intcor
     38.42     -33.36       1.82       0.00       0.00       0.10       1.63       2.97

> <Gold.PLP.Fitness>
38.4234

> <Gold.PLP.PLP>
-33.3589

> <Gold.PLP.part.hbond>
-2.0000

> <Gold.PLP.part.metal>
0.0000

> <Gold.PLP.part.buried>
-2.6359

> <Gold.PLP.part.nonpolar>
-29.8698

> <Gold.PLP.part.repulsive>
0.1031

> <Gold.PLP.ligand.clash>
0.0979

> <Gold.PLP.ligand.torsion>
1.6267

> <Gold.PLP.Chemscore.Hbond>
1.8160

> <Gold.PLP.Chemscore.CHOScore>
0.0000

> <Gold.PLP.Chemscore.Metal>
0.0000

> <Gold.Chemscore.Hbonds>
donor molecule, donor type, donor heavy atom, donor atom, acceptor molecule, acceptor atom, score
      L1  H    10    21       P1   582  0.82
      L1  H    12    23       P1   470  1.00

> <Gold.PLP.Chemscore.Internal.Correction>
2.9679

