#       Name:                EN300-216848_i001
#       Creating user name   aseyller
#       Creation time:       Fri Apr 21 16:31:24 2023


#       File generated by GOLD software.
#

@<TRIPOS>MOLECULE
EN300-216848_i001|aminophenols|mol2|42|dock16
    23    23     1
SMALL
USER_CHARGES


@<TRIPOS>ATOM
      1 C1          31.9045  35.6821  37.6230 C.3            1 <1>                0.0000
      2 N2          31.4762  37.0466  37.9410 N.pl3          1 <1>                0.0000
      3 S3          29.9798  37.5759  37.4689 S.o2           1 <1>                0.0000
      4 O4          29.9955  38.9909  37.5982 O.2            1 <1>                0.0000
      5 O5          29.6853  36.9101  36.2485 O.2            1 <1>                0.0000
      6 C6          28.8186  36.9809  38.6530 C.ar           1 <1>                0.0000
      7 C7          29.2477  36.1898  39.7025 C.ar           1 <1>                0.0000
      8 C8          28.3409  35.7196  40.6346 C.ar           1 <1>                0.0000
      9 C9          26.9987  36.0408  40.5189 C.ar           1 <1>                0.0000
     10 O10         26.1057  35.5793  41.4352 O.3            1 <1>                0.0000
     11 C11         26.5654  36.8383  39.4619 C.ar           1 <1>                0.0000
     12 N12         25.2102  37.1663  39.3400 N.pl3          1 <1>                0.0000
     13 C13         27.4816  37.3107  38.5335 C.ar           1 <1>                0.0000
     14 H14         31.9055  35.5443  36.5418 H              1 <1>                0.0000
     15 H15         32.9096  35.5171  38.0113 H              1 <1>                0.0000
     16 H16         31.2172  34.9699  38.0795 H              1 <1>                0.0000
     17 H17         30.2939  35.9382  39.7945 H              1 <1>                0.0000
     18 H18         28.6794  35.1012  41.4529 H              1 <1>                0.0000
     19 H19         27.1491  37.9292  37.7130 H              1 <1>                0.0000
     20 H20         32.0692  37.6400  38.4281 H              1 <1>                0.0000
     21 H21         26.5034  35.3285  42.2802 H              1 <1>                0.0000
     22 H22         24.5712  36.8382  39.9919 H              1 <1>                0.0000
     23 H23         24.9099  37.7215  38.6034 H              1 <1>                0.0000
@<TRIPOS>BOND
    1    1    2 1     
    2    1   14 1     
    3    1   15 1     
    4    1   16 1     
    5    2    3 1     
    6    2   20 1     
    7    3    4 2     
    8    3    5 2     
    9    3    6 1     
   10    6    7 ar    
   11    6   13 ar    
   12    7    8 ar    
   13    7   17 1     
   14    8    9 ar    
   15    8   18 1     
   16    9   10 1     
   17    9   11 ar    
   18   10   21 1     
   19   11   12 1     
   20   11   13 ar    
   21   12   22 1     
   22   12   23 1     
   23   13   19 1     
@<TRIPOS>SUBSTRUCTURE
      1 ****           1
@<TRIPOS>SET
DONOR_HYDROGENS      STATIC     ATOMS    <user>   **** ""
4 20 21 22 23
ATOM$RED        STATIC     ATOMS    COLORGROUP SYSTEM
4 20 21 22 23
@<TRIPOS>COMMENT
> <Gold.Version>
2022.2.0

> <Gold.Id.Protein>
1qkm|1qkm_protein|mol2

> <Gold.Protein.RotatedTorsions>
[  496  491  490  487 ] final  -12.94 input  -89.99 | X-H torsion

> <Gold.Protein.ActiveResidues>
 MET295  LEU298  THR299  LEU301  ALA302  GLU305  TRP335  MET336  LEU339  MET340 
 GLY342  LEU343  ARG346  PHE356  ILE373  ILE376  PHE377  LEU380  LYS471  GLY472 
 MET473  HIS475  LEU476  LEU477  ASN478  MET479  VAL484  VAL487 

> <Gold.Protein.RotatedAtoms>
   36.2661   34.3867   42.1129 H   0  0  0  0  0  0  0  0  0  0  0  0  # atno 496  bound_to 491 

> <Gold.Score>
     Score     S(PLP)   S(hbond)     S(cho)   S(metal)  DE(clash)   DE(tors)     intcor
     38.17     -35.45       1.09       0.00       0.00       0.00       1.76       2.97

> <Gold.PLP.Fitness>
38.1725

> <Gold.PLP.PLP>
-35.4471

> <Gold.PLP.part.hbond>
-2.0000

> <Gold.PLP.part.metal>
0.0000

> <Gold.PLP.part.buried>
-4.1894

> <Gold.PLP.part.nonpolar>
-30.2938

> <Gold.PLP.part.repulsive>
0.1177

> <Gold.PLP.ligand.clash>
0.0000

> <Gold.PLP.ligand.torsion>
1.7581

> <Gold.PLP.Chemscore.Hbond>
1.0912

> <Gold.PLP.Chemscore.CHOScore>
0.0000

> <Gold.PLP.Chemscore.Metal>
0.0000

> <Gold.Chemscore.Hbonds>
donor molecule, donor type, donor heavy atom, donor atom, acceptor molecule, acceptor atom, score
      L1  H    10    21       P1   582  0.80
      L1  H    12    22       P1  1131  0.29

> <Gold.PLP.Chemscore.Internal.Correction>
2.9679

