#       Name:                EN300-216848_i001
#       Creating user name   aseyller
#       Creation time:       Fri Apr 21 16:31:19 2023


#       File generated by GOLD software.
#

@<TRIPOS>MOLECULE
EN300-216848_i001|aminophenols|mol2|42|dock11
    23    23     1
SMALL
USER_CHARGES


@<TRIPOS>ATOM
      1 C1          33.6264  36.3968  34.9004 C.3            1 <1>                0.0000
      2 N2          32.2666  36.7463  34.4815 N.pl3          1 <1>                0.0000
      3 S3          31.4269  37.9212  35.2918 S.o2           1 <1>                0.0000
      4 O4          32.3690  38.9325  35.6218 O.2            1 <1>                0.0000
      5 O5          30.2523  38.1712  34.5321 O.2            1 <1>                0.0000
      6 C6          30.8926  37.2217  36.8182 C.ar           1 <1>                0.0000
      7 C7          31.7707  36.4709  37.5776 C.ar           1 <1>                0.0000
      8 C8          31.3570  35.9191  38.7761 C.ar           1 <1>                0.0000
      9 C9          30.0599  36.1179  39.2194 C.ar           1 <1>                0.0000
     10 O10         29.6518  35.5761  40.3982 O.3            1 <1>                0.0000
     11 C11         29.1746  36.8747  38.4551 C.ar           1 <1>                0.0000
     12 N12         27.8627  37.0790  38.8980 N.pl3          1 <1>                0.0000
     13 C13         29.5982  37.4296  37.2562 C.ar           1 <1>                0.0000
     14 H14         33.6095  36.0444  35.9317 H              1 <1>                0.0000
     15 H15         34.0146  35.6097  34.2538 H              1 <1>                0.0000
     16 H16         34.2664  37.2759  34.8272 H              1 <1>                0.0000
     17 H17         32.7825  36.3148  37.2337 H              1 <1>                0.0000
     18 H18         32.0453  35.3326  39.3666 H              1 <1>                0.0000
     19 H19         28.9144  38.0168  36.6613 H              1 <1>                0.0000
     20 H20         31.8584  36.2896  33.7294 H              1 <1>                0.0000
     21 H21         30.3688  35.4176  41.0275 H              1 <1>                0.0000
     22 H22         27.5689  36.6935  39.7383 H              1 <1>                0.0000
     23 H23         27.2472  37.6061  38.3647 H              1 <1>                0.0000
@<TRIPOS>BOND
    1    1    2 1     
    2    1   14 1     
    3    1   15 1     
    4    1   16 1     
    5    2    3 1     
    6    2   20 1     
    7    3    4 2     
    8    3    5 2     
    9    3    6 1     
   10    6    7 ar    
   11    6   13 ar    
   12    7    8 ar    
   13    7   17 1     
   14    8    9 ar    
   15    8   18 1     
   16    9   10 1     
   17    9   11 ar    
   18   10   21 1     
   19   11   12 1     
   20   11   13 ar    
   21   12   22 1     
   22   12   23 1     
   23   13   19 1     
@<TRIPOS>SUBSTRUCTURE
      1 ****           1
@<TRIPOS>SET
DONOR_HYDROGENS      STATIC     ATOMS    <user>   **** ""
4 20 21 22 23
ATOM$RED        STATIC     ATOMS    COLORGROUP SYSTEM
4 20 21 22 23
@<TRIPOS>COMMENT
> <Gold.Version>
2022.2.0

> <Gold.Id.Protein>
1qkm|1qkm_protein|mol2

> <Gold.Protein.RotatedTorsions>
[  496  491  490  487 ] final   66.16 input  -89.99 | X-H torsion

> <Gold.Protein.ActiveResidues>
 MET295  LEU298  THR299  LEU301  ALA302  GLU305  TRP335  MET336  LEU339  MET340 
 GLY342  LEU343  ARG346  PHE356  ILE373  ILE376  PHE377  LEU380  LYS471  GLY472 
 MET473  HIS475  LEU476  LEU477  ASN478  MET479  VAL484  VAL487 

> <Gold.Protein.RotatedAtoms>
   36.6037   33.2435   42.2605 H   0  0  0  0  0  0  0  0  0  0  0  0  # atno 496  bound_to 491 

> <Gold.Score>
     Score     S(PLP)   S(hbond)     S(cho)   S(metal)  DE(clash)   DE(tors)     intcor
     35.55     -30.16       1.89       0.00       0.00       0.00       1.63       2.97

> <Gold.PLP.Fitness>
35.5541

> <Gold.PLP.PLP>
-30.1631

> <Gold.PLP.part.hbond>
-2.0000

> <Gold.PLP.part.metal>
0.0000

> <Gold.PLP.part.buried>
-1.8487

> <Gold.PLP.part.nonpolar>
-27.6786

> <Gold.PLP.part.repulsive>
0.1293

> <Gold.PLP.ligand.clash>
0.0000

> <Gold.PLP.ligand.torsion>
1.6290

> <Gold.PLP.Chemscore.Hbond>
1.8938

> <Gold.PLP.Chemscore.CHOScore>
0.0000

> <Gold.PLP.Chemscore.Metal>
0.0000

> <Gold.Chemscore.Hbonds>
donor molecule, donor type, donor heavy atom, donor atom, acceptor molecule, acceptor atom, score
      L1  H     2    20       P1  3187  0.89
      L1  H    10    21       P1   470  1.00

> <Gold.PLP.Chemscore.Internal.Correction>
2.9679

