#       Name:                EN300-216848_i001
#       Creating user name   aseyller
#       Creation time:       Fri Apr 21 16:31:27 2023


#       File generated by GOLD software.
#

@<TRIPOS>MOLECULE
EN300-216848_i001|aminophenols|mol2|42|dock20
    23    23     1
SMALL
USER_CHARGES


@<TRIPOS>ATOM
      1 C1          31.8819  38.5020  34.7386 C.3            1 <1>                0.0000
      2 N2          32.6082  38.0810  35.9393 N.pl3          1 <1>                0.0000
      3 S3          32.3066  36.5983  36.6121 S.o2           1 <1>                0.0000
      4 O4          32.0979  35.7015  35.5298 O.2            1 <1>                0.0000
      5 O5          33.3025  36.3985  37.6060 O.2            1 <1>                0.0000
      6 C6          30.7692  36.7153  37.4649 C.ar           1 <1>                0.0000
      7 C7          29.6559  37.2137  36.8142 C.ar           1 <1>                0.0000
      8 C8          28.4468  37.3084  37.4784 C.ar           1 <1>                0.0000
      9 C9          28.3481  36.9031  38.7991 C.ar           1 <1>                0.0000
     10 O10         27.1594  36.9952  39.4536 O.3            1 <1>                0.0000
     11 C11         29.4694  36.4003  39.4555 C.ar           1 <1>                0.0000
     12 N12         29.3756  35.9891  40.7901 N.pl3          1 <1>                0.0000
     13 C13         30.6778  36.3034  38.7811 C.ar           1 <1>                0.0000
     14 H14         30.8125  38.5209  34.9488 H              1 <1>                0.0000
     15 H15         32.2121  39.4985  34.4451 H              1 <1>                0.0000
     16 H16         32.0807  37.8001  33.9289 H              1 <1>                0.0000
     17 H17         29.7308  37.5303  35.7844 H              1 <1>                0.0000
     18 H18         27.5791  37.6989  36.9673 H              1 <1>                0.0000
     19 H19         31.5490  35.9140  39.2870 H              1 <1>                0.0000
     20 H20         33.2658  38.6708  36.3401 H              1 <1>                0.0000
     21 H21         27.2309  37.3477  40.3512 H              1 <1>                0.0000
     22 H22         28.5291  36.0539  41.2593 H              1 <1>                0.0000
     23 H23         30.1571  35.6393  41.2459 H              1 <1>                0.0000
@<TRIPOS>BOND
    1    1    2 1     
    2    1   14 1     
    3    1   15 1     
    4    1   16 1     
    5    2    3 1     
    6    2   20 1     
    7    3    4 2     
    8    3    5 2     
    9    3    6 1     
   10    6    7 ar    
   11    6   13 ar    
   12    7    8 ar    
   13    7   17 1     
   14    8    9 ar    
   15    8   18 1     
   16    9   10 1     
   17    9   11 ar    
   18   10   21 1     
   19   11   12 1     
   20   11   13 ar    
   21   12   22 1     
   22   12   23 1     
   23   13   19 1     
@<TRIPOS>SUBSTRUCTURE
      1 ****           1
@<TRIPOS>SET
DONOR_HYDROGENS      STATIC     ATOMS    <user>   **** ""
4 20 21 22 23
ATOM$RED        STATIC     ATOMS    COLORGROUP SYSTEM
4 20 21 22 23
@<TRIPOS>COMMENT
> <Gold.Version>
2022.2.0

> <Gold.Id.Protein>
1qkm|1qkm_protein|mol2

> <Gold.Protein.RotatedTorsions>
[  496  491  490  487 ] final  -84.84 input  -89.99 | X-H torsion

> <Gold.Protein.ActiveResidues>
 MET295  LEU298  THR299  LEU301  ALA302  GLU305  TRP335  MET336  LEU339  MET340 
 GLY342  LEU343  ARG346  PHE356  ILE373  ILE376  PHE377  LEU380  LYS471  GLY472 
 MET473  HIS475  LEU476  LEU477  ASN478  MET479  VAL484  VAL487 

> <Gold.Protein.RotatedAtoms>
   36.7099   34.6838   41.1426 H   0  0  0  0  0  0  0  0  0  0  0  0  # atno 496  bound_to 491 

> <Gold.Score>
     Score     S(PLP)   S(hbond)     S(cho)   S(metal)  DE(clash)   DE(tors)     intcor
     34.00     -31.23       1.00       0.00       0.00       0.00       1.60       2.97

> <Gold.PLP.Fitness>
34.0023

> <Gold.PLP.PLP>
-31.2296

> <Gold.PLP.part.hbond>
-1.0000

> <Gold.PLP.part.metal>
0.0000

> <Gold.PLP.part.buried>
-4.7877

> <Gold.PLP.part.nonpolar>
-25.4409

> <Gold.PLP.part.repulsive>
0.1482

> <Gold.PLP.ligand.clash>
0.0000

> <Gold.PLP.ligand.torsion>
1.5976

> <Gold.PLP.Chemscore.Hbond>
1.0000

> <Gold.PLP.Chemscore.CHOScore>
0.0000

> <Gold.PLP.Chemscore.Metal>
0.0000

> <Gold.Chemscore.Hbonds>
donor molecule, donor type, donor heavy atom, donor atom, acceptor molecule, acceptor atom, score
      L1  H    12    23       P1   470  1.00

> <Gold.PLP.Chemscore.Internal.Correction>
2.9679

