#       Name:                EN300-216848_i001
#       Creating user name   aseyller
#       Creation time:       Fri Apr 21 16:31:15 2023


#       File generated by GOLD software.
#

@<TRIPOS>MOLECULE
EN300-216848_i001|aminophenols|mol2|42|dock7
    23    23     1
SMALL
USER_CHARGES


@<TRIPOS>ATOM
      1 C1          30.9397  36.7383  34.9959 C.3            1 <1>                0.0000
      2 N2          29.7993  37.0343  35.8667 N.pl3          1 <1>                0.0000
      3 S3          30.0229  37.9078  37.2556 S.o2           1 <1>                0.0000
      4 O4          31.3315  37.6008  37.7165 O.2            1 <1>                0.0000
      5 O5          29.5894  39.2311  36.9715 O.2            1 <1>                0.0000
      6 C6          28.9080  37.2670  38.4601 C.ar           1 <1>                0.0000
      7 C7          27.5504  37.2440  38.2000 C.ar           1 <1>                0.0000
      8 C8          26.6705  36.7426  39.1416 C.ar           1 <1>                0.0000
      9 C9          27.1482  36.2612  40.3493 C.ar           1 <1>                0.0000
     10 O10         26.2840  35.7675  41.2762 O.3            1 <1>                0.0000
     11 C11         28.5161  36.2836  40.6120 C.ar           1 <1>                0.0000
     12 N12         29.0046  35.7984  41.8306 N.pl3          1 <1>                0.0000
     13 C13         29.3933  36.7833  39.6605 C.ar           1 <1>                0.0000
     14 H14         31.6816  36.1645  35.5513 H              1 <1>                0.0000
     15 H15         30.6004  36.1588  34.1373 H              1 <1>                0.0000
     16 H16         31.3855  37.6713  34.6513 H              1 <1>                0.0000
     17 H17         27.1759  37.6188  37.2589 H              1 <1>                0.0000
     18 H18         25.6104  36.7267  38.9355 H              1 <1>                0.0000
     19 H19         30.4544  36.8020  39.8610 H              1 <1>                0.0000
     20 H20         28.9132  36.7186  35.6296 H              1 <1>                0.0000
     21 H21         26.7052  35.5050  42.1062 H              1 <1>                0.0000
     22 H22         28.3904  35.4459  42.4936 H              1 <1>                0.0000
     23 H23         29.9573  35.8147  42.0123 H              1 <1>                0.0000
@<TRIPOS>BOND
    1    1    2 1     
    2    1   14 1     
    3    1   15 1     
    4    1   16 1     
    5    2    3 1     
    6    2   20 1     
    7    3    4 2     
    8    3    5 2     
    9    3    6 1     
   10    6    7 ar    
   11    6   13 ar    
   12    7    8 ar    
   13    7   17 1     
   14    8    9 ar    
   15    8   18 1     
   16    9   10 1     
   17    9   11 ar    
   18   10   21 1     
   19   11   12 1     
   20   11   13 ar    
   21   12   22 1     
   22   12   23 1     
   23   13   19 1     
@<TRIPOS>SUBSTRUCTURE
      1 ****           1
@<TRIPOS>SET
DONOR_HYDROGENS      STATIC     ATOMS    <user>   **** ""
4 20 21 22 23
ATOM$RED        STATIC     ATOMS    COLORGROUP SYSTEM
4 20 21 22 23
@<TRIPOS>COMMENT
> <Gold.Version>
2022.2.0

> <Gold.Id.Protein>
1qkm|1qkm_protein|mol2

> <Gold.Protein.RotatedTorsions>
[  496  491  490  487 ] final  -37.75 input  -89.99 | X-H torsion

> <Gold.Protein.ActiveResidues>
 MET295  LEU298  THR299  LEU301  ALA302  GLU305  TRP335  MET336  LEU339  MET340 
 GLY342  LEU343  ARG346  PHE356  ILE373  ILE376  PHE377  LEU380  LYS471  GLY472 
 MET473  HIS475  LEU476  LEU477  ASN478  MET479  VAL484  VAL487 

> <Gold.Protein.RotatedAtoms>
   36.3512   34.6343   41.8035 H   0  0  0  0  0  0  0  0  0  0  0  0  # atno 496  bound_to 491 

> <Gold.Score>
     Score     S(PLP)   S(hbond)     S(cho)   S(metal)  DE(clash)   DE(tors)     intcor
     40.59     -35.86       1.69       0.00       0.00       0.00       1.65       2.97

> <Gold.PLP.Fitness>
40.5875

> <Gold.PLP.PLP>
-35.8624

> <Gold.PLP.part.hbond>
-2.0000

> <Gold.PLP.part.metal>
0.0000

> <Gold.PLP.part.buried>
-4.7259

> <Gold.PLP.part.nonpolar>
-29.5956

> <Gold.PLP.part.repulsive>
0.0893

> <Gold.PLP.ligand.clash>
0.0000

> <Gold.PLP.ligand.torsion>
1.6534

> <Gold.PLP.Chemscore.Hbond>
1.6880

> <Gold.PLP.Chemscore.CHOScore>
0.0000

> <Gold.PLP.Chemscore.Metal>
0.0000

> <Gold.Chemscore.Hbonds>
donor molecule, donor type, donor heavy atom, donor atom, acceptor molecule, acceptor atom, score
      L1  H    10    21       P1   582  0.69
      L1  H    12    23       P1   470  1.00

> <Gold.PLP.Chemscore.Internal.Correction>
2.9679

