#       Name:                EN300-216848_i001
#       Creating user name   aseyller
#       Creation time:       Fri Apr 21 16:31:23 2023


#       File generated by GOLD software.
#

@<TRIPOS>MOLECULE
EN300-216848_i001|aminophenols|mol2|42|dock15
    23    23     1
SMALL
USER_CHARGES


@<TRIPOS>ATOM
      1 C1          29.3056  39.8072  36.7554 C.3            1 <1>                0.0000
      2 N2          30.1815  38.9832  37.5923 N.pl3          1 <1>                0.0000
      3 S3          30.0452  37.3332  37.5599 S.o2           1 <1>                0.0000
      4 O4          29.5090  36.9998  36.2869 O.2            1 <1>                0.0000
      5 O5          31.2790  36.8191  38.0424 O.2            1 <1>                0.0000
      6 C6          28.8221  36.8874  38.7473 C.ar           1 <1>                0.0000
      7 C7          29.1841  36.1772  39.8768 C.ar           1 <1>                0.0000
      8 C8          28.2286  35.8241  40.8120 C.ar           1 <1>                0.0000
      9 C9          26.9046  36.1821  40.6190 C.ar           1 <1>                0.0000
     10 O10         25.9638  35.8358  41.5381 O.3            1 <1>                0.0000
     11 C11         26.5390  36.8981  39.4813 C.ar           1 <1>                0.0000
     12 N12         25.2026  37.2627  39.2810 N.pl3          1 <1>                0.0000
     13 C13         27.5039  37.2534  38.5500 C.ar           1 <1>                0.0000
     14 H14         28.2659  39.6235  37.0266 H              1 <1>                0.0000
     15 H15         29.5408  40.8602  36.9100 H              1 <1>                0.0000
     16 H16         29.4584  39.5509  35.7071 H              1 <1>                0.0000
     17 H17         30.2160  35.8972  40.0292 H              1 <1>                0.0000
     18 H18         28.5147  35.2687  41.6930 H              1 <1>                0.0000
     19 H19         27.2238  37.8086  37.6669 H              1 <1>                0.0000
     20 H20         30.8412  39.4043  38.1653 H              1 <1>                0.0000
     21 H21         26.3223  35.3968  42.3216 H              1 <1>                0.0000
     22 H22         24.5295  37.0168  39.9348 H              1 <1>                0.0000
     23 H23         24.9494  37.7611  38.4883 H              1 <1>                0.0000
@<TRIPOS>BOND
    1    1    2 1     
    2    1   14 1     
    3    1   15 1     
    4    1   16 1     
    5    2    3 1     
    6    2   20 1     
    7    3    4 2     
    8    3    5 2     
    9    3    6 1     
   10    6    7 ar    
   11    6   13 ar    
   12    7    8 ar    
   13    7   17 1     
   14    8    9 ar    
   15    8   18 1     
   16    9   10 1     
   17    9   11 ar    
   18   10   21 1     
   19   11   12 1     
   20   11   13 ar    
   21   12   22 1     
   22   12   23 1     
   23   13   19 1     
@<TRIPOS>SUBSTRUCTURE
      1 ****           1
@<TRIPOS>SET
DONOR_HYDROGENS      STATIC     ATOMS    <user>   **** ""
4 20 21 22 23
ATOM$RED        STATIC     ATOMS    COLORGROUP SYSTEM
4 20 21 22 23
@<TRIPOS>COMMENT
> <Gold.Version>
2022.2.0

> <Gold.Id.Protein>
1qkm|1qkm_protein|mol2

> <Gold.Protein.RotatedTorsions>
[  496  491  490  487 ] final   86.07 input  -89.99 | X-H torsion

> <Gold.Protein.ActiveResidues>
 MET295  LEU298  THR299  LEU301  ALA302  GLU305  TRP335  MET336  LEU339  MET340 
 GLY342  LEU343  ARG346  PHE356  ILE373  ILE376  PHE377  LEU380  LYS471  GLY472 
 MET473  HIS475  LEU476  LEU477  ASN478  MET479  VAL484  VAL487 

> <Gold.Protein.RotatedAtoms>
   36.7839   33.0496   42.0700 H   0  0  0  0  0  0  0  0  0  0  0  0  # atno 496  bound_to 491 

> <Gold.Score>
     Score     S(PLP)   S(hbond)     S(cho)   S(metal)  DE(clash)   DE(tors)     intcor
     39.30     -35.70       1.23       0.00       0.00       0.00       1.53       2.97

> <Gold.PLP.Fitness>
39.2971

> <Gold.PLP.PLP>
-35.7032

> <Gold.PLP.part.hbond>
-2.0000

> <Gold.PLP.part.metal>
0.0000

> <Gold.PLP.part.buried>
-3.7331

> <Gold.PLP.part.nonpolar>
-31.3509

> <Gold.PLP.part.repulsive>
0.1437

> <Gold.PLP.ligand.clash>
0.0000

> <Gold.PLP.ligand.torsion>
1.5268

> <Gold.PLP.Chemscore.Hbond>
1.2265

> <Gold.PLP.Chemscore.CHOScore>
0.0000

> <Gold.PLP.Chemscore.Metal>
0.0000

> <Gold.Chemscore.Hbonds>
donor molecule, donor type, donor heavy atom, donor atom, acceptor molecule, acceptor atom, score
      L1  H    10    21       P1   582  0.99
      L1  H    12    22       P1  1131  0.23

> <Gold.PLP.Chemscore.Internal.Correction>
2.9679

