#       Name:                EN300-216848_i001
#       Creating user name   aseyller
#       Creation time:       Fri Apr 21 16:31:11 2023


#       File generated by GOLD software.
#

@<TRIPOS>MOLECULE
EN300-216848_i001|aminophenols|mol2|42|dock3
    23    23     1
SMALL
USER_CHARGES


@<TRIPOS>ATOM
      1 C1          32.0850  35.1032  37.7630 C.3            1 <1>                0.0000
      2 N2          30.6267  35.2165  37.8473 N.pl3          1 <1>                0.0000
      3 S3          29.9118  36.7101  37.8613 S.o2           1 <1>                0.0000
      4 O4          30.8671  37.6072  38.4107 O.2            1 <1>                0.0000
      5 O5          29.3273  36.8873  36.5781 O.2            1 <1>                0.0000
      6 C6          28.5777  36.6391  39.0101 C.ar           1 <1>                0.0000
      7 C7          27.3476  37.1721  38.6722 C.ar           1 <1>                0.0000
      8 C8          26.2970  37.1196  39.5698 C.ar           1 <1>                0.0000
      9 C9          26.4749  36.5318  40.8112 C.ar           1 <1>                0.0000
     10 O10         25.4424  36.4792  41.6949 O.3            1 <1>                0.0000
     11 C11         27.7140  35.9940  41.1524 C.ar           1 <1>                0.0000
     12 N12         27.8996  35.3987  42.4054 N.pl3          1 <1>                0.0000
     13 C13         28.7619  36.0456  40.2448 C.ar           1 <1>                0.0000
     14 H14         32.5384  35.6042  38.6183 H              1 <1>                0.0000
     15 H15         32.3684  34.0507  37.7661 H              1 <1>                0.0000
     16 H16         32.4331  35.5705  36.8418 H              1 <1>                0.0000
     17 H17         27.2068  37.6308  37.7047 H              1 <1>                0.0000
     18 H18         25.3375  37.5376  39.3030 H              1 <1>                0.0000
     19 H19         29.7237  35.6296  40.5060 H              1 <1>                0.0000
     20 H20         30.0801  34.4166  37.8948 H              1 <1>                0.0000
     21 H21         25.4819  35.7272  42.3017 H              1 <1>                0.0000
     22 H22         27.1649  35.3600  43.0376 H              1 <1>                0.0000
     23 H23         28.7629  35.0248  42.6416 H              1 <1>                0.0000
@<TRIPOS>BOND
    1    1    2 1     
    2    1   14 1     
    3    1   15 1     
    4    1   16 1     
    5    2    3 1     
    6    2   20 1     
    7    3    4 2     
    8    3    5 2     
    9    3    6 1     
   10    6    7 ar    
   11    6   13 ar    
   12    7    8 ar    
   13    7   17 1     
   14    8    9 ar    
   15    8   18 1     
   16    9   10 1     
   17    9   11 ar    
   18   10   21 1     
   19   11   12 1     
   20   11   13 ar    
   21   12   22 1     
   22   12   23 1     
   23   13   19 1     
@<TRIPOS>SUBSTRUCTURE
      1 ****           1
@<TRIPOS>SET
DONOR_HYDROGENS      STATIC     ATOMS    <user>   **** ""
4 20 21 22 23
ATOM$RED        STATIC     ATOMS    COLORGROUP SYSTEM
4 20 21 22 23
@<TRIPOS>COMMENT
> <Gold.Version>
2022.2.0

> <Gold.Id.Protein>
1qkm|1qkm_protein|mol2

> <Gold.Protein.RotatedTorsions>
[  496  491  490  487 ] final  -82.45 input  -89.99 | X-H torsion

> <Gold.Protein.ActiveResidues>
 MET295  LEU298  THR299  LEU301  ALA302  GLU305  TRP335  MET336  LEU339  MET340 
 GLY342  LEU343  ARG346  PHE356  ILE373  ILE376  PHE377  LEU380  LYS471  GLY472 
 MET473  HIS475  LEU476  LEU477  ASN478  MET479  VAL484  VAL487 

> <Gold.Protein.RotatedAtoms>
   36.6881   34.6956   41.1733 H   0  0  0  0  0  0  0  0  0  0  0  0  # atno 496  bound_to 491 

> <Gold.Score>
     Score     S(PLP)   S(hbond)     S(cho)   S(metal)  DE(clash)   DE(tors)     intcor
     40.45     -34.85       2.01       0.00       0.00       0.00       1.70       2.97

> <Gold.PLP.Fitness>
40.4513

> <Gold.PLP.PLP>
-34.8528

> <Gold.PLP.part.hbond>
-2.4029

> <Gold.PLP.part.metal>
0.0000

> <Gold.PLP.part.buried>
-1.3205

> <Gold.PLP.part.nonpolar>
-31.7559

> <Gold.PLP.part.repulsive>
0.1102

> <Gold.PLP.ligand.clash>
0.0000

> <Gold.PLP.ligand.torsion>
1.6994

> <Gold.PLP.Chemscore.Hbond>
2.0098

> <Gold.PLP.Chemscore.CHOScore>
0.0000

> <Gold.PLP.Chemscore.Metal>
0.0000

> <Gold.Chemscore.Hbonds>
donor molecule, donor type, donor heavy atom, donor atom, acceptor molecule, acceptor atom, score
      L1  H    10    21       P1   582  1.00
      L1  H    12    22       P1   582  1.00
      P1  H  1258  1270       L1    10  0.01

> <Gold.PLP.Chemscore.Internal.Correction>
2.9679

