#       Name:                EN300-216848_i001
#       Creating user name   aseyller
#       Creation time:       Fri Apr 21 16:31:14 2023


#       File generated by GOLD software.
#

@<TRIPOS>MOLECULE
EN300-216848_i001|aminophenols|mol2|42|dock6
    23    23     1
SMALL
USER_CHARGES


@<TRIPOS>ATOM
      1 C1          32.4960  36.3657  36.8806 C.3            1 <1>                0.0000
      2 N2          31.6952  37.2951  37.6815 N.pl3          1 <1>                0.0000
      3 S3          30.1699  37.7107  37.1888 S.o2           1 <1>                0.0000
      4 O4          30.1204  39.1308  37.1912 O.2            1 <1>                0.0000
      5 O5          29.8921  36.9253  36.0375 O.2            1 <1>                0.0000
      6 C6          29.0526  37.1718  38.4400 C.ar           1 <1>                0.0000
      7 C7          27.6895  37.2169  38.2134 C.ar           1 <1>                0.0000
      8 C8          26.8078  36.7957  39.1918 C.ar           1 <1>                0.0000
      9 C9          27.2889  36.3265  40.4028 C.ar           1 <1>                0.0000
     10 O10         26.4229  35.9116  41.3659 O.3            1 <1>                0.0000
     11 C11         28.6623  36.2803  40.6319 C.ar           1 <1>                0.0000
     12 N12         29.1544  35.8071  41.8538 N.pl3          1 <1>                0.0000
     13 C13         29.5411  36.6996  39.6438 C.ar           1 <1>                0.0000
     14 H14         32.6452  36.7806  35.8837 H              1 <1>                0.0000
     15 H15         33.4633  36.2138  37.3595 H              1 <1>                0.0000
     16 H16         31.9752  35.4114  36.8027 H              1 <1>                0.0000
     17 H17         27.3123  37.5823  37.2697 H              1 <1>                0.0000
     18 H18         25.7434  36.8329  39.0117 H              1 <1>                0.0000
     19 H19         30.6064  36.6651  39.8181 H              1 <1>                0.0000
     20 H20         32.0586  37.6669  38.5004 H              1 <1>                0.0000
     21 H21         26.8311  35.3697  42.0550 H              1 <1>                0.0000
     22 H22         28.5389  35.5108  42.5425 H              1 <1>                0.0000
     23 H23         30.1109  35.7756  42.0120 H              1 <1>                0.0000
@<TRIPOS>BOND
    1    1    2 1     
    2    1   14 1     
    3    1   15 1     
    4    1   16 1     
    5    2    3 1     
    6    2   20 1     
    7    3    4 2     
    8    3    5 2     
    9    3    6 1     
   10    6    7 ar    
   11    6   13 ar    
   12    7    8 ar    
   13    7   17 1     
   14    8    9 ar    
   15    8   18 1     
   16    9   10 1     
   17    9   11 ar    
   18   10   21 1     
   19   11   12 1     
   20   11   13 ar    
   21   12   22 1     
   22   12   23 1     
   23   13   19 1     
@<TRIPOS>SUBSTRUCTURE
      1 ****           1
@<TRIPOS>SET
DONOR_HYDROGENS      STATIC     ATOMS    <user>   **** ""
4 20 21 22 23
ATOM$RED        STATIC     ATOMS    COLORGROUP SYSTEM
4 20 21 22 23
@<TRIPOS>COMMENT
> <Gold.Version>
2022.2.0

> <Gold.Id.Protein>
1qkm|1qkm_protein|mol2

> <Gold.Protein.RotatedTorsions>
[  496  491  490  487 ] final -150.38 input  -89.99 | X-H torsion

> <Gold.Protein.ActiveResidues>
 MET295  LEU298  THR299  LEU301  ALA302  GLU305  TRP335  MET336  LEU339  MET340 
 GLY342  LEU343  ARG346  PHE356  ILE373  ILE376  PHE377  LEU380  LYS471  GLY472 
 MET473  HIS475  LEU476  LEU477  ASN478  MET479  VAL484  VAL487 

> <Gold.Protein.RotatedAtoms>
   37.2332   33.9139   40.7233 H   0  0  0  0  0  0  0  0  0  0  0  0  # atno 496  bound_to 491 

> <Gold.Score>
     Score     S(PLP)   S(hbond)     S(cho)   S(metal)  DE(clash)   DE(tors)     intcor
     40.75     -36.53       1.60       0.00       0.00       0.00       1.78       2.97

> <Gold.PLP.Fitness>
40.7478

> <Gold.PLP.PLP>
-36.5293

> <Gold.PLP.part.hbond>
-2.0000

> <Gold.PLP.part.metal>
0.0000

> <Gold.PLP.part.buried>
-5.3418

> <Gold.PLP.part.nonpolar>
-29.9796

> <Gold.PLP.part.repulsive>
0.0989

> <Gold.PLP.ligand.clash>
0.0000

> <Gold.PLP.ligand.torsion>
1.7795

> <Gold.PLP.Chemscore.Hbond>
1.6032

> <Gold.PLP.Chemscore.CHOScore>
0.0000

> <Gold.PLP.Chemscore.Metal>
0.0000

> <Gold.Chemscore.Hbonds>
donor molecule, donor type, donor heavy atom, donor atom, acceptor molecule, acceptor atom, score
      L1  H    10    21       P1   582  0.60
      L1  H    12    23       P1   470  1.00

> <Gold.PLP.Chemscore.Internal.Correction>
2.9679

