#       Name:                EN300-216848_i001
#       Creating user name   aseyller
#       Creation time:       Fri Apr 21 16:31:26 2023


#       File generated by GOLD software.
#

@<TRIPOS>MOLECULE
EN300-216848_i001|aminophenols|mol2|42|dock19
    23    23     1
SMALL
USER_CHARGES


@<TRIPOS>ATOM
      1 C1          29.7392  38.0974  35.5435 C.3            1 <1>                0.0000
      2 N2          29.7547  36.9952  36.5085 N.pl3          1 <1>                0.0000
      3 S3          30.2167  37.2721  38.0744 S.o2           1 <1>                0.0000
      4 O4          31.2482  36.3374  38.3597 O.2            1 <1>                0.0000
      5 O5          30.3846  38.6775  38.2007 O.2            1 <1>                0.0000
      6 C6          28.8542  36.8394  39.1045 C.ar           1 <1>                0.0000
      7 C7          29.0702  36.1322  40.2726 C.ar           1 <1>                0.0000
      8 C8          28.0048  35.7894  41.0848 C.ar           1 <1>                0.0000
      9 C9          26.7170  36.1546  40.7295 C.ar           1 <1>                0.0000
     10 O10         25.6682  35.8185  41.5276 O.3            1 <1>                0.0000
     11 C11         26.4985  36.8677  39.5528 C.ar           1 <1>                0.0000
     12 N12         25.1992  37.2396  39.1886 N.pl3          1 <1>                0.0000
     13 C13         27.5727  37.2126  38.7456 C.ar           1 <1>                0.0000
     14 H14         30.7421  38.5146  35.4523 H              1 <1>                0.0000
     15 H15         29.4106  37.7259  34.5729 H              1 <1>                0.0000
     16 H16         29.0535  38.8717  35.8874 H              1 <1>                0.0000
     17 H17         30.0737  35.8464  40.5515 H              1 <1>                0.0000
     18 H18         28.1770  35.2363  41.9964 H              1 <1>                0.0000
     19 H19         27.4067  37.7654  37.8327 H              1 <1>                0.0000
     20 H20         29.4943  36.1032  36.2301 H              1 <1>                0.0000
     21 H21         24.8388  35.6806  41.0499 H              1 <1>                0.0000
     22 H22         24.4494  37.0009  39.7559 H              1 <1>                0.0000
     23 H23         25.0485  37.7359  38.3689 H              1 <1>                0.0000
@<TRIPOS>BOND
    1    1    2 1     
    2    1   14 1     
    3    1   15 1     
    4    1   16 1     
    5    2    3 1     
    6    2   20 1     
    7    3    4 2     
    8    3    5 2     
    9    3    6 1     
   10    6    7 ar    
   11    6   13 ar    
   12    7    8 ar    
   13    7   17 1     
   14    8    9 ar    
   15    8   18 1     
   16    9   10 1     
   17    9   11 ar    
   18   10   21 1     
   19   11   12 1     
   20   11   13 ar    
   21   12   22 1     
   22   12   23 1     
   23   13   19 1     
@<TRIPOS>SUBSTRUCTURE
      1 ****           1
@<TRIPOS>SET
DONOR_HYDROGENS      STATIC     ATOMS    <user>   **** ""
4 20 21 22 23
ATOM$RED        STATIC     ATOMS    COLORGROUP SYSTEM
4 20 21 22 23
@<TRIPOS>COMMENT
> <Gold.Version>
2022.2.0

> <Gold.Id.Protein>
1qkm|1qkm_protein|mol2

> <Gold.Protein.RotatedTorsions>
[  496  491  490  487 ] final  138.62 input  -89.99 | X-H torsion

> <Gold.Protein.ActiveResidues>
 MET295  LEU298  THR299  LEU301  ALA302  GLU305  TRP335  MET336  LEU339  MET340 
 GLY342  LEU343  ARG346  PHE356  ILE373  ILE376  PHE377  LEU380  LYS471  GLY472 
 MET473  HIS475  LEU476  LEU477  ASN478  MET479  VAL484  VAL487 

> <Gold.Protein.RotatedAtoms>
   37.2066   33.0163   41.3506 H   0  0  0  0  0  0  0  0  0  0  0  0  # atno 496  bound_to 491 

> <Gold.Score>
     Score     S(PLP)   S(hbond)     S(cho)   S(metal)  DE(clash)   DE(tors)     intcor
     33.40     -32.32       0.48       0.00       0.00       0.00       1.66       2.97

> <Gold.PLP.Fitness>
33.4010

> <Gold.PLP.PLP>
-32.3152

> <Gold.PLP.part.hbond>
-1.9989

> <Gold.PLP.part.metal>
0.0000

> <Gold.PLP.part.buried>
-1.2574

> <Gold.PLP.part.nonpolar>
-29.7228

> <Gold.PLP.part.repulsive>
0.1656

> <Gold.PLP.ligand.clash>
0.0000

> <Gold.PLP.ligand.torsion>
1.6645

> <Gold.PLP.Chemscore.Hbond>
0.4823

> <Gold.PLP.Chemscore.CHOScore>
0.0000

> <Gold.PLP.Chemscore.Metal>
0.0000

> <Gold.Chemscore.Hbonds>
donor molecule, donor type, donor heavy atom, donor atom, acceptor molecule, acceptor atom, score
      L1  H    12    22       P1  1131  0.48

> <Gold.PLP.Chemscore.Internal.Correction>
2.9679

