#       Name:                EN300-216848_i001
#       Creating user name   aseyller
#       Creation time:       Fri Apr 21 16:31:12 2023


#       File generated by GOLD software.
#

@<TRIPOS>MOLECULE
EN300-216848_i001|aminophenols|mol2|42|dock4
    23    23     1
SMALL
USER_CHARGES


@<TRIPOS>ATOM
      1 C1          29.6374  38.0135  35.3374 C.3            1 <1>                0.0000
      2 N2          29.6286  36.9691  36.3649 N.pl3          1 <1>                0.0000
      3 S3          30.0336  37.3410  37.9269 S.o2           1 <1>                0.0000
      4 O4          31.0623  36.4349  38.3012 O.2            1 <1>                0.0000
      5 O5          30.1855  38.7530  37.9768 O.2            1 <1>                0.0000
      6 C6          28.6398  36.9547  38.9333 C.ar           1 <1>                0.0000
      7 C7          27.3630  37.2198  38.4741 C.ar           1 <1>                0.0000
      8 C8          26.2654  36.9192  39.2596 C.ar           1 <1>                0.0000
      9 C9          26.4429  36.3506  40.5100 C.ar           1 <1>                0.0000
     10 O10         25.3642  36.0540  41.2835 O.3            1 <1>                0.0000
     11 C11         27.7292  36.0827  40.9733 C.ar           1 <1>                0.0000
     12 N12         27.9147  35.5081  42.2360 N.pl3          1 <1>                0.0000
     13 C13         28.8254  36.3821  40.1776 C.ar           1 <1>                0.0000
     14 H14         30.6394  38.4350  35.2564 H              1 <1>                0.0000
     15 H15         29.3458  37.5831  34.3794 H              1 <1>                0.0000
     16 H16         28.9338  38.7994  35.6120 H              1 <1>                0.0000
     17 H17         27.2225  37.6631  37.4994 H              1 <1>                0.0000
     18 H18         25.2693  37.1282  38.8981 H              1 <1>                0.0000
     19 H19         29.8238  36.1756  40.5337 H              1 <1>                0.0000
     20 H20         29.3853  36.0599  36.1302 H              1 <1>                0.0000
     21 H21         25.5875  35.6332  42.1250 H              1 <1>                0.0000
     22 H22         27.1471  35.2958  42.7898 H              1 <1>                0.0000
     23 H23         28.8108  35.3222  42.5574 H              1 <1>                0.0000
@<TRIPOS>BOND
    1    1    2 1     
    2    1   14 1     
    3    1   15 1     
    4    1   16 1     
    5    2    3 1     
    6    2   20 1     
    7    3    4 2     
    8    3    5 2     
    9    3    6 1     
   10    6    7 ar    
   11    6   13 ar    
   12    7    8 ar    
   13    7   17 1     
   14    8    9 ar    
   15    8   18 1     
   16    9   10 1     
   17    9   11 ar    
   18   10   21 1     
   19   11   12 1     
   20   11   13 ar    
   21   12   22 1     
   22   12   23 1     
   23   13   19 1     
@<TRIPOS>SUBSTRUCTURE
      1 ****           1
@<TRIPOS>SET
DONOR_HYDROGENS      STATIC     ATOMS    <user>   **** ""
4 20 21 22 23
ATOM$RED        STATIC     ATOMS    COLORGROUP SYSTEM
4 20 21 22 23
@<TRIPOS>COMMENT
> <Gold.Version>
2022.2.0

> <Gold.Id.Protein>
1qkm|1qkm_protein|mol2

> <Gold.Protein.RotatedTorsions>
[  496  491  490  487 ] final   92.91 input  -89.99 | X-H torsion

> <Gold.Protein.ActiveResidues>
 MET295  LEU298  THR299  LEU301  ALA302  GLU305  TRP335  MET336  LEU339  MET340 
 GLY342  LEU343  ARG346  PHE356  ILE373  ILE376  PHE377  LEU380  LYS471  GLY472 
 MET473  HIS475  LEU476  LEU477  ASN478  MET479  VAL484  VAL487 

> <Gold.Protein.RotatedAtoms>
   36.8471   33.0039   41.9888 H   0  0  0  0  0  0  0  0  0  0  0  0  # atno 496  bound_to 491 

> <Gold.Score>
     Score     S(PLP)   S(hbond)     S(cho)   S(metal)  DE(clash)   DE(tors)     intcor
     40.54     -34.93       2.00       0.00       0.00       0.00       1.68       2.97

> <Gold.PLP.Fitness>
40.5354

> <Gold.PLP.PLP>
-34.9312

> <Gold.PLP.part.hbond>
-2.4305

> <Gold.PLP.part.metal>
0.0000

> <Gold.PLP.part.buried>
-3.8989

> <Gold.PLP.part.nonpolar>
-29.1844

> <Gold.PLP.part.repulsive>
0.1290

> <Gold.PLP.ligand.clash>
0.0000

> <Gold.PLP.ligand.torsion>
1.6818

> <Gold.PLP.Chemscore.Hbond>
2.0000

> <Gold.PLP.Chemscore.CHOScore>
0.0000

> <Gold.PLP.Chemscore.Metal>
0.0000

> <Gold.Chemscore.Hbonds>
donor molecule, donor type, donor heavy atom, donor atom, acceptor molecule, acceptor atom, score
      L1  H    10    21       P1   582  1.00
      L1  H    12    22       P1   582  1.00

> <Gold.PLP.Chemscore.Internal.Correction>
2.9679

