#       Name:                EN300-216848_i001
#       Creating user name   aseyller
#       Creation time:       Fri Apr 21 16:31:25 2023


#       File generated by GOLD software.
#

@<TRIPOS>MOLECULE
EN300-216848_i001|aminophenols|mol2|42|dock17
    23    23     1
SMALL
USER_CHARGES


@<TRIPOS>ATOM
      1 C1          29.9671  39.9976  37.3006 C.3            1 <1>                0.0000
      2 N2          29.8574  38.6732  37.9172 N.pl3          1 <1>                0.0000
      3 S3          28.7175  37.6003  37.3772 S.o2           1 <1>                0.0000
      4 O4          27.9306  38.2980  36.4217 O.2            1 <1>                0.0000
      5 O5          29.4091  36.3943  37.0828 O.2            1 <1>                0.0000
      6 C6          27.6520  37.2441  38.7346 C.ar           1 <1>                0.0000
      7 C7          26.3388  37.6758  38.7122 C.ar           1 <1>                0.0000
      8 C8          25.4980  37.3997  39.7747 C.ar           1 <1>                0.0000
      9 C9          25.9702  36.6885  40.8654 C.ar           1 <1>                0.0000
     10 O10         25.1443  36.4159  41.9110 O.3            1 <1>                0.0000
     11 C11         27.2932  36.2528  40.8886 C.ar           1 <1>                0.0000
     12 N12         27.7759  35.5336  41.9881 N.pl3          1 <1>                0.0000
     13 C13         28.1295  36.5290  39.8167 C.ar           1 <1>                0.0000
     14 H14         29.0249  40.5327  37.4192 H              1 <1>                0.0000
     15 H15         30.7668  40.5585  37.7844 H              1 <1>                0.0000
     16 H16         30.1911  39.8871  36.2397 H              1 <1>                0.0000
     17 H17         25.9686  38.2304  37.8626 H              1 <1>                0.0000
     18 H18         24.4728  37.7390  39.7543 H              1 <1>                0.0000
     19 H19         29.1557  36.1926  39.8316 H              1 <1>                0.0000
     20 H20         30.4527  38.4247  38.6417 H              1 <1>                0.0000
     21 H21         25.4031  35.6382  42.4242 H              1 <1>                0.0000
     22 H22         27.1891  35.3380  42.7353 H              1 <1>                0.0000
     23 H23         28.6974  35.2309  42.0030 H              1 <1>                0.0000
@<TRIPOS>BOND
    1    1    2 1     
    2    1   14 1     
    3    1   15 1     
    4    1   16 1     
    5    2    3 1     
    6    2   20 1     
    7    3    4 2     
    8    3    5 2     
    9    3    6 1     
   10    6    7 ar    
   11    6   13 ar    
   12    7    8 ar    
   13    7   17 1     
   14    8    9 ar    
   15    8   18 1     
   16    9   10 1     
   17    9   11 ar    
   18   10   21 1     
   19   11   12 1     
   20   11   13 ar    
   21   12   22 1     
   22   12   23 1     
   23   13   19 1     
@<TRIPOS>SUBSTRUCTURE
      1 ****           1
@<TRIPOS>SET
DONOR_HYDROGENS      STATIC     ATOMS    <user>   **** ""
4 20 21 22 23
ATOM$RED        STATIC     ATOMS    COLORGROUP SYSTEM
4 20 21 22 23
@<TRIPOS>COMMENT
> <Gold.Version>
2022.2.0

> <Gold.Id.Protein>
1qkm|1qkm_protein|mol2

> <Gold.Protein.RotatedTorsions>
[  496  491  490  487 ] final   89.78 input  -89.99 | X-H torsion

> <Gold.Protein.ActiveResidues>
 MET295  LEU298  THR299  LEU301  ALA302  GLU305  TRP335  MET336  LEU339  MET340 
 GLY342  LEU343  ARG346  PHE356  ILE373  ILE376  PHE377  LEU380  LYS471  GLY472 
 MET473  HIS475  LEU476  LEU477  ASN478  MET479  VAL484  VAL487 

> <Gold.Protein.RotatedAtoms>
   36.8182   33.0234   42.0269 H   0  0  0  0  0  0  0  0  0  0  0  0  # atno 496  bound_to 491 

> <Gold.Score>
     Score     S(PLP)   S(hbond)     S(cho)   S(metal)  DE(clash)   DE(tors)     intcor
     41.24     -33.49       2.63       0.00       0.00       0.00       1.55       2.97

> <Gold.PLP.Fitness>
41.2368

> <Gold.PLP.PLP>
-33.4898

> <Gold.PLP.part.hbond>
-3.0000

> <Gold.PLP.part.metal>
0.0000

> <Gold.PLP.part.buried>
-0.4700

> <Gold.PLP.part.nonpolar>
-30.2463

> <Gold.PLP.part.repulsive>
0.0691

> <Gold.PLP.ligand.clash>
0.0000

> <Gold.PLP.ligand.torsion>
1.5539

> <Gold.PLP.Chemscore.Hbond>
2.6289

> <Gold.PLP.Chemscore.CHOScore>
0.0000

> <Gold.PLP.Chemscore.Metal>
0.0000

> <Gold.Chemscore.Hbonds>
donor molecule, donor type, donor heavy atom, donor atom, acceptor molecule, acceptor atom, score
      L1  H    10    21       P1   582  1.00
      L1  H    12    22       P1   582  1.00
      P1  H  1258  1270       L1    10  0.63

> <Gold.PLP.Chemscore.Internal.Correction>
2.9679

