#       Name:                EN300-216848_i001
#       Creating user name   aseyller
#       Creation time:       Fri Apr 21 16:31:20 2023


#       File generated by GOLD software.
#

@<TRIPOS>MOLECULE
EN300-216848_i001|aminophenols|mol2|42|dock12
    23    23     1
SMALL
USER_CHARGES


@<TRIPOS>ATOM
      1 C1          32.8300  36.4148  34.8297 C.3            1 <1>                0.0000
      2 N2          31.5626  36.8298  35.4361 N.pl3          1 <1>                0.0000
      3 S3          31.5656  37.7509  36.8122 S.o2           1 <1>                0.0000
      4 O4          32.6578  37.2945  37.5982 O.2            1 <1>                0.0000
      5 O5          31.4209  39.1007  36.3919 O.2            1 <1>                0.0000
      6 C6          30.1040  37.3505  37.7111 C.ar           1 <1>                0.0000
      7 C7          28.8639  37.6596  37.1841 C.ar           1 <1>                0.0000
      8 C8          27.7133  37.3481  37.8852 C.ar           1 <1>                0.0000
      9 C9          27.8009  36.7245  39.1188 C.ar           1 <1>                0.0000
     10 O10         26.6702  36.4173  39.8092 O.3            1 <1>                0.0000
     11 C11         29.0502  36.4123  39.6504 C.ar           1 <1>                0.0000
     12 N12         29.1449  35.7820  40.8965 N.pl3          1 <1>                0.0000
     13 C13         30.2000  36.7230  38.9390 C.ar           1 <1>                0.0000
     14 H14         33.3967  35.8182  35.5446 H              1 <1>                0.0000
     15 H15         32.6289  35.8198  33.9387 H              1 <1>                0.0000
     16 H16         33.4074  37.2973  34.5546 H              1 <1>                0.0000
     17 H17         28.7934  38.1458  36.2224 H              1 <1>                0.0000
     18 H18         26.7460  37.5916  37.4709 H              1 <1>                0.0000
     19 H19         31.1700  36.4823  39.3483 H              1 <1>                0.0000
     20 H20         30.7217  36.5650  35.0314 H              1 <1>                0.0000
     21 H21         26.1150  37.1819  40.0150 H              1 <1>                0.0000
     22 H22         28.3400  35.5620  41.3912 H              1 <1>                0.0000
     23 H23         30.0154  35.5653  41.2655 H              1 <1>                0.0000
@<TRIPOS>BOND
    1    1    2 1     
    2    1   14 1     
    3    1   15 1     
    4    1   16 1     
    5    2    3 1     
    6    2   20 1     
    7    3    4 2     
    8    3    5 2     
    9    3    6 1     
   10    6    7 ar    
   11    6   13 ar    
   12    7    8 ar    
   13    7   17 1     
   14    8    9 ar    
   15    8   18 1     
   16    9   10 1     
   17    9   11 ar    
   18   10   21 1     
   19   11   12 1     
   20   11   13 ar    
   21   12   22 1     
   22   12   23 1     
   23   13   19 1     
@<TRIPOS>SUBSTRUCTURE
      1 ****           1
@<TRIPOS>SET
DONOR_HYDROGENS      STATIC     ATOMS    <user>   **** ""
4 20 21 22 23
ATOM$RED        STATIC     ATOMS    COLORGROUP SYSTEM
4 20 21 22 23
@<TRIPOS>COMMENT
> <Gold.Version>
2022.2.0

> <Gold.Id.Protein>
1qkm|1qkm_protein|mol2

> <Gold.Protein.RotatedTorsions>
[  496  491  490  487 ] final -163.64 input  -89.99 | X-H torsion

> <Gold.Protein.ActiveResidues>
 MET295  LEU298  THR299  LEU301  ALA302  GLU305  TRP335  MET336  LEU339  MET340 
 GLY342  LEU343  ARG346  PHE356  ILE373  ILE376  PHE377  LEU380  LYS471  GLY472 
 MET473  HIS475  LEU476  LEU477  ASN478  MET479  VAL484  VAL487 

> <Gold.Protein.RotatedAtoms>
   37.2876   33.7066   40.7621 H   0  0  0  0  0  0  0  0  0  0  0  0  # atno 496  bound_to 491 

> <Gold.Score>
     Score     S(PLP)   S(hbond)     S(cho)   S(metal)  DE(clash)   DE(tors)     intcor
     34.96     -32.25       1.00       0.00       0.00       0.00       1.63       2.97

> <Gold.PLP.Fitness>
34.9558

> <Gold.PLP.PLP>
-32.2506

> <Gold.PLP.part.hbond>
-1.0000

> <Gold.PLP.part.metal>
0.0000

> <Gold.PLP.part.buried>
-2.3940

> <Gold.PLP.part.nonpolar>
-28.2165

> <Gold.PLP.part.repulsive>
0.0616

> <Gold.PLP.ligand.clash>
0.0000

> <Gold.PLP.ligand.torsion>
1.6313

> <Gold.PLP.Chemscore.Hbond>
1.0000

> <Gold.PLP.Chemscore.CHOScore>
0.0000

> <Gold.PLP.Chemscore.Metal>
0.0000

> <Gold.Chemscore.Hbonds>
donor molecule, donor type, donor heavy atom, donor atom, acceptor molecule, acceptor atom, score
      L1  H    12    23       P1   470  1.00

> <Gold.PLP.Chemscore.Internal.Correction>
2.9679

