#       Name:                EN300-216848_i001
#       Creating user name   aseyller
#       Creation time:       Fri Apr 21 16:31:11 2023


#       File generated by GOLD software.
#

@<TRIPOS>MOLECULE
EN300-216848_i001|aminophenols|mol2|42|dock2
    23    23     1
SMALL
USER_CHARGES


@<TRIPOS>ATOM
      1 C1          31.2331  35.7030  38.5090 C.3            1 <1>                0.0000
      2 N2          31.0775  37.1251  38.1927 N.pl3          1 <1>                0.0000
      3 S3          29.6410  37.6869  37.5903 S.o2           1 <1>                0.0000
      4 O4          29.7157  39.1053  37.6320 O.2            1 <1>                0.0000
      5 O5          29.3932  36.9564  36.3967 O.2            1 <1>                0.0000
      6 C6          28.3799  37.2213  38.7293 C.ar           1 <1>                0.0000
      7 C7          27.0498  37.3935  38.3938 C.ar           1 <1>                0.0000
      8 C8          26.0557  37.0304  39.2839 C.ar           1 <1>                0.0000
      9 C9          26.3908  36.4921  40.5152 C.ar           1 <1>                0.0000
     10 O10         25.4141  36.1342  41.3914 O.3            1 <1>                0.0000
     11 C11         27.7309  36.3178  40.8539 C.ar           1 <1>                0.0000
     12 N12         28.0755  35.7743  42.0968 N.pl3          1 <1>                0.0000
     13 C13         28.7226  36.6796  39.9539 C.ar           1 <1>                0.0000
     14 H14         31.0761  35.1110  37.6073 H              1 <1>                0.0000
     15 H15         32.2381  35.5237  38.8911 H              1 <1>                0.0000
     16 H16         30.5008  35.4164  39.2638 H              1 <1>                0.0000
     17 H17         26.7864  37.8130  37.4342 H              1 <1>                0.0000
     18 H18         25.0176  37.1669  39.0189 H              1 <1>                0.0000
     19 H19         29.7624  36.5457  40.2133 H              1 <1>                0.0000
     20 H20         31.8159  37.7375  38.3363 H              1 <1>                0.0000
     21 H21         25.7465  35.7886  42.2312 H              1 <1>                0.0000
     22 H22         27.3809  35.5184  42.7237 H              1 <1>                0.0000
     23 H23         29.0090  35.6536  42.3314 H              1 <1>                0.0000
@<TRIPOS>BOND
    1    1    2 1     
    2    1   14 1     
    3    1   15 1     
    4    1   16 1     
    5    2    3 1     
    6    2   20 1     
    7    3    4 2     
    8    3    5 2     
    9    3    6 1     
   10    6    7 ar    
   11    6   13 ar    
   12    7    8 ar    
   13    7   17 1     
   14    8    9 ar    
   15    8   18 1     
   16    9   10 1     
   17    9   11 ar    
   18   10   21 1     
   19   11   12 1     
   20   11   13 ar    
   21   12   22 1     
   22   12   23 1     
   23   13   19 1     
@<TRIPOS>SUBSTRUCTURE
      1 ****           1
@<TRIPOS>SET
DONOR_HYDROGENS      STATIC     ATOMS    <user>   **** ""
4 20 21 22 23
ATOM$RED        STATIC     ATOMS    COLORGROUP SYSTEM
4 20 21 22 23
@<TRIPOS>COMMENT
> <Gold.Version>
2022.2.0

> <Gold.Id.Protein>
1qkm|1qkm_protein|mol2

> <Gold.Protein.RotatedTorsions>
[  496  491  490  487 ] final -162.76 input  -89.99 | X-H torsion

> <Gold.Protein.ActiveResidues>
 MET295  LEU298  THR299  LEU301  ALA302  GLU305  TRP335  MET336  LEU339  MET340 
 GLY342  LEU343  ARG346  PHE356  ILE373  ILE376  PHE377  LEU380  LYS471  GLY472 
 MET473  HIS475  LEU476  LEU477  ASN478  MET479  VAL484  VAL487 

> <Gold.Protein.RotatedAtoms>
   37.2847   33.7204   40.7581 H   0  0  0  0  0  0  0  0  0  0  0  0  # atno 496  bound_to 491 

> <Gold.Score>
     Score     S(PLP)   S(hbond)     S(cho)   S(metal)  DE(clash)   DE(tors)     intcor
     43.89     -38.50       2.00       0.00       0.00       0.00       1.79       2.97

> <Gold.PLP.Fitness>
43.8867

> <Gold.PLP.PLP>
-38.5030

> <Gold.PLP.part.hbond>
-2.0944

> <Gold.PLP.part.metal>
0.0000

> <Gold.PLP.part.buried>
-4.2997

> <Gold.PLP.part.nonpolar>
-31.5700

> <Gold.PLP.part.repulsive>
0.0726

> <Gold.PLP.ligand.clash>
0.0000

> <Gold.PLP.ligand.torsion>
1.7921

> <Gold.PLP.Chemscore.Hbond>
2.0000

> <Gold.PLP.Chemscore.CHOScore>
0.0000

> <Gold.PLP.Chemscore.Metal>
0.0000

> <Gold.Chemscore.Hbonds>
donor molecule, donor type, donor heavy atom, donor atom, acceptor molecule, acceptor atom, score
      L1  H    10    21       P1   582  1.00
      L1  H    12    22       P1   582  1.00

> <Gold.PLP.Chemscore.Internal.Correction>
2.9679

