#       Name:                EN300-44899_i001
#       Creating user name   fsindt
#       Creation time:       Thu Mar  2 04:57:39 2023


#       File generated by GOLD software.
#

@<TRIPOS>MOLECULE
EN300-44899_i001|acide_1|mol2|12435|dock4
    26    27     1
SMALL
USER_CHARGES


@<TRIPOS>ATOM
      1 O1          -0.8186 -17.2071  13.2053 O.co2          1 <1>               -1.0000
      2 C2          -0.3313 -16.0857  13.1794 C.2            1 <1>                0.0000
      3 O3           0.0606 -15.5651  14.2145 O.co2          1 <1>                0.0000
      4 C4          -0.2107 -15.3634  11.8993 C.ar           1 <1>                0.0000
      5 C5           0.0862 -16.0615  10.7257 C.ar           1 <1>                0.0000
      6 C6           0.1980 -15.3837   9.5296 C.ar           1 <1>                0.0000
      7 C7           0.0170 -14.0127   9.4862 C.ar           1 <1>                0.0000
      8 Cl8          0.1592 -13.1687   7.9758 Cl             1 <1>                0.0000
      9 C9          -0.2791 -13.3079  10.6493 C.ar           1 <1>                0.0000
     10 C10         -0.3987 -13.9797  11.8547 C.ar           1 <1>                0.0000
     11 N11         -0.4605 -11.9227  10.6002 N.pl3          1 <1>                0.0000
     12 C12          0.5896 -10.9139  10.3943 C.3            1 <1>                0.0000
     13 C13          0.1999  -9.5947  11.0882 C.3            1 <1>                0.0000
     14 C14         -1.2921  -9.3827  10.7007 C.3            1 <1>                0.0000
     15 S15         -1.9105 -11.1093  10.7573 S.o2           1 <1>                0.0000
     16 O16         -2.6514 -11.4296   9.5877 O.2            1 <1>                0.0000
     17 O17         -2.3792 -11.4461  12.0558 O.2            1 <1>                0.0000
     18 H18          0.2285 -17.1317  10.7554 H              1 <1>                0.0000
     19 H19          0.4278 -15.9250   8.6237 H              1 <1>                0.0000
     20 H20         -0.6288 -13.4348  12.7583 H              1 <1>                0.0000
     21 H21          1.5279 -11.2785  10.8124 H              1 <1>                0.0000
     22 H22          0.7158 -10.7367   9.3263 H              1 <1>                0.0000
     23 H23          0.3034  -9.6876  12.1693 H              1 <1>                0.0000
     24 H24          0.8111  -8.7728  10.7153 H              1 <1>                0.0000
     25 H25         -1.8030  -8.7550  11.4307 H              1 <1>                0.0000
     26 H26         -1.3828  -8.9686   9.6965 H              1 <1>                0.0000
@<TRIPOS>BOND
    1    1    2 ar    
    2    2    3 ar    
    3    2    4 1     
    4    4    5 ar    
    5    4   10 ar    
    6    5    6 ar    
    7    5   18 1     
    8    6    7 ar    
    9    6   19 1     
   10    7    8 1     
   11    7    9 ar    
   12    9   10 ar    
   13    9   11 1     
   14   10   20 1     
   15   11   12 1     
   16   11   15 1     
   17   12   13 1     
   18   12   21 1     
   19   12   22 1     
   20   13   14 1     
   21   13   23 1     
   22   13   24 1     
   23   14   15 1     
   24   14   25 1     
   25   14   26 1     
   26   15   16 2     
   27   15   17 2     
@<TRIPOS>SUBSTRUCTURE
      1 ****           1
@<TRIPOS>COMMENT
> <Gold.Version>
2022.2.0

> <Gold.Id.Protein>
3pbl|protein|mol2

> <Gold.Protein.RotatedTorsions>
[ 1303 1298 1297 1294 ] final   -0.52 input  179.99 | X-H torsion
[ 2461 2456 2455 2452 ] final    8.19 input   30.03 | X-H torsion
[ 2515 2510 2509 2506 ] final  -30.96 input  -89.99 | X-H torsion
[ 3721 3712 3711 3710 ] final   45.58 input -179.91 | X-H torsion
[ 3841 3832 3831 3830 ] final  -33.31 input -179.91 | X-H torsion
[ 3767 3762 3761 3758 ] final -147.50 input  -89.99 | X-H torsion
[ 2472 2467 2466 2463 ] final   16.37 input  -89.97 | X-H torsion

> <Gold.Protein.ActiveResidues>
 VAL82   VAL86   LEU89   PHE106  VAL107  ASP110  VAL111  MET112  CYS114  THR115 
 CYS181  SER182  ILE183  PHE188  VAL189  ILE190  SER192  SER193  SER196  TRP342 
 PHE345  PHE346  HIS349  VAL350  TYR365  THR369  GLY372  TYR373 

> <Gold.Protein.RotatedAtoms>
    3.3835   -9.8657    4.0429 H   0  0  0  0  0  0  0  0  0  0  0  0  # atno 1303 bound_to 1298
    1.1702   -7.9510    7.0386 H   0  0  0  0  0  0  0  0  0  0  0  0  # atno 2461 bound_to 2456
   -3.9783   -4.8264    7.8807 H   0  0  0  0  0  0  0  0  0  0  0  0  # atno 2472 bound_to 2467
    2.7254   -8.0376    4.3795 H   0  0  0  0  0  0  0  0  0  0  0  0  # atno 2515 bound_to 2510
   -2.5261  -17.9921   13.5734 H   0  0  0  0  0  0  0  0  0  0  0  0  # atno 3721 bound_to 3712
   -4.4680  -22.1685   11.6461 H   0  0  0  0  0  0  0  0  0  0  0  0  # atno 3767 bound_to 3762
    1.5652  -20.0921    9.3114 H   0  0  0  0  0  0  0  0  0  0  0  0  # atno 3841 bound_to 3832
    4.2405   -8.4769    4.0989 LP  0  0  0  0  0  0  0  0  0  0  0  0  # atno 4297 bound_to 1298
    4.7384   -9.7786    4.9500 LP  0  0  0  0  0  0  0  0  0  0  0  0  # atno 4298 bound_to 1298
    0.4938   -9.1141    7.9644 LP  0  0  0  0  0  0  0  0  0  0  0  0  # atno 4299 bound_to 2456
    2.0737   -8.7428    8.1449 LP  0  0  0  0  0  0  0  0  0  0  0  0  # atno 4300 bound_to 2456
    2.5259   -9.2397    5.4663 LP  0  0  0  0  0  0  0  0  0  0  0  0  # atno 4301 bound_to 2510
    2.0453   -7.7220    5.8299 LP  0  0  0  0  0  0  0  0  0  0  0  0  # atno 4302 bound_to 2510
   -3.1041  -17.2115   14.8519 LP  0  0  0  0  0  0  0  0  0  0  0  0  # atno 4306 bound_to 3712
   -3.5071  -16.7426   13.3405 LP  0  0  0  0  0  0  0  0  0  0  0  0  # atno 4307 bound_to 3712
    2.6367  -19.8699    8.1373 LP  0  0  0  0  0  0  0  0  0  0  0  0  # atno 4314 bound_to 3832
    2.7847  -21.1260    9.1702 LP  0  0  0  0  0  0  0  0  0  0  0  0  # atno 4315 bound_to 3832
   -4.1670  -23.3250   10.5332 LP  0  0  0  0  0  0  0  0  0  0  0  0  # atno 4318 bound_to 3762
   -5.4922  -22.3814   10.3921 LP  0  0  0  0  0  0  0  0  0  0  0  0  # atno 4319 bound_to 3762
   -4.2408   -5.3977    9.3877 LP  0  0  0  0  0  0  0  0  0  0  0  0  # atno 4320 bound_to 2467
   -5.4977   -5.1694    8.3706 LP  0  0  0  0  0  0  0  0  0  0  0  0  # atno 4321 bound_to 2467

> <Gold.Score>
     Score     S(PLP)   S(hbond)     S(cho)   S(metal)  DE(clash)   DE(tors)     intcor
     42.39     -39.71       1.54       0.00       0.00       0.00       1.88       1.80

> <Gold.PLP.Fitness>
42.3859

> <Gold.PLP.PLP>
-39.7086

> <Gold.PLP.part.hbond>
-3.0000

> <Gold.PLP.part.metal>
0.0000

> <Gold.PLP.part.buried>
2.0052

> <Gold.PLP.part.nonpolar>
-41.0047

> <Gold.PLP.part.repulsive>
0.1955

> <Gold.PLP.ligand.clash>
0.0000

> <Gold.PLP.ligand.torsion>
1.8784

> <Gold.PLP.Chemscore.Hbond>
1.5440

> <Gold.PLP.Chemscore.CHOScore>
0.0000

> <Gold.PLP.Chemscore.Metal>
0.0000

> <Gold.Chemscore.Hbonds>
donor molecule, donor type, donor heavy atom, donor atom, acceptor molecule, acceptor atom, score
      P1  H  2305  2313       L1     3  1.00
      P1  H  3712  3721       L1     1  0.54

> <Gold.PLP.Chemscore.Internal.Correction>
1.8021

