#       Name:                EN300-44899_i001
#       Creating user name   fsindt
#       Creation time:       Thu Mar  2 04:57:40 2023


#       File generated by GOLD software.
#

@<TRIPOS>MOLECULE
EN300-44899_i001|acide_1|mol2|12435|dock6
    26    27     1
SMALL
USER_CHARGES


@<TRIPOS>ATOM
      1 O1          -3.8698 -24.1261  14.6133 O.co2          1 <1>               -1.0000
      2 C2          -3.3154 -23.2634  13.9469 C.2            1 <1>                0.0000
      3 O3          -3.9721 -22.5509  13.2006 O.co2          1 <1>                0.0000
      4 C4          -1.8557 -23.0782  14.0477 C.ar           1 <1>                0.0000
      5 C5          -1.0249 -24.1755  14.2895 C.ar           1 <1>                0.0000
      6 C6           0.3401 -23.9997  14.3829 C.ar           1 <1>                0.0000
      7 C7           0.8916 -22.7391  14.2379 C.ar           1 <1>                0.0000
      8 Cl8          2.6107 -22.5281  14.3565 Cl             1 <1>                0.0000
      9 C9           0.0730 -21.6396  13.9967 C.ar           1 <1>                0.0000
     10 C10         -1.2984 -21.8061  13.8960 C.ar           1 <1>                0.0000
     11 N11          0.6352 -20.3681  13.8514 N.pl3          1 <1>                0.0000
     12 C12          1.5523 -19.7088  14.7933 C.3            1 <1>                0.0000
     13 C13          1.3870 -18.1793  14.7108 C.3            1 <1>                0.0000
     14 C14          1.3502 -17.8786  13.1845 C.3            1 <1>                0.0000
     15 S15          0.3947 -19.3209  12.5730 S.o2           1 <1>                0.0000
     16 O16          1.0364 -19.9297  11.4609 O.2            1 <1>                0.0000
     17 O17         -1.0009 -19.0535  12.5777 O.2            1 <1>                0.0000
     18 H18         -1.4515 -25.1611  14.4036 H              1 <1>                0.0000
     19 H19          0.9805 -24.8490  14.5702 H              1 <1>                0.0000
     20 H20         -1.9354 -20.9543  13.7085 H              1 <1>                0.0000
     21 H21          1.3300 -20.0420  15.8071 H              1 <1>                0.0000
     22 H22          2.5794 -19.9752  14.5437 H              1 <1>                0.0000
     23 H23          0.4542 -17.8707  15.1826 H              1 <1>                0.0000
     24 H24          2.2352 -17.6785  15.1776 H              1 <1>                0.0000
     25 H25          0.8294 -16.9433  12.9800 H              1 <1>                0.0000
     26 H26          2.3546 -17.8682  12.7611 H              1 <1>                0.0000
@<TRIPOS>BOND
    1    1    2 ar    
    2    2    3 ar    
    3    2    4 1     
    4    4    5 ar    
    5    4   10 ar    
    6    5    6 ar    
    7    5   18 1     
    8    6    7 ar    
    9    6   19 1     
   10    7    8 1     
   11    7    9 ar    
   12    9   10 ar    
   13    9   11 1     
   14   10   20 1     
   15   11   12 1     
   16   11   15 1     
   17   12   13 1     
   18   12   21 1     
   19   12   22 1     
   20   13   14 1     
   21   13   23 1     
   22   13   24 1     
   23   14   15 1     
   24   14   25 1     
   25   14   26 1     
   26   15   16 2     
   27   15   17 2     
@<TRIPOS>SUBSTRUCTURE
      1 ****           1
@<TRIPOS>COMMENT
> <Gold.Version>
2022.2.0

> <Gold.Id.Protein>
3pbl|protein|mol2

> <Gold.Protein.RotatedTorsions>
[ 1303 1298 1297 1294 ] final -122.74 input  179.99 | X-H torsion
[ 2461 2456 2455 2452 ] final   96.12 input   30.03 | X-H torsion
[ 2515 2510 2509 2506 ] final  -17.86 input  -89.99 | X-H torsion
[ 3721 3712 3711 3710 ] final   46.63 input -179.91 | X-H torsion
[ 3841 3832 3831 3830 ] final   -3.62 input -179.91 | X-H torsion
[ 3767 3762 3761 3758 ] final -162.51 input  -89.99 | X-H torsion
[ 2472 2467 2466 2463 ] final -106.97 input  -89.97 | X-H torsion

> <Gold.Protein.ActiveResidues>
 VAL82   VAL86   LEU89   PHE106  VAL107  ASP110  VAL111  MET112  CYS114  THR115 
 CYS181  SER182  ILE183  PHE188  VAL189  ILE190  SER192  SER193  SER196  TRP342 
 PHE345  PHE346  HIS349  VAL350  TYR365  THR369  GLY372  TYR373 

> <Gold.Protein.RotatedAtoms>
    4.2704   -8.4757    4.1198 H   0  0  0  0  0  0  0  0  0  0  0  0  # atno 1303 bound_to 1298
    2.1550   -8.3649    7.7958 H   0  0  0  0  0  0  0  0  0  0  0  0  # atno 2461 bound_to 2456
   -4.2924   -5.4095    9.4026 H   0  0  0  0  0  0  0  0  0  0  0  0  # atno 2472 bound_to 2467
    2.6548   -7.8467    4.4491 H   0  0  0  0  0  0  0  0  0  0  0  0  # atno 2515 bound_to 2510
   -2.5301  -17.9874   13.5587 H   0  0  0  0  0  0  0  0  0  0  0  0  # atno 3721 bound_to 3712
   -4.2781  -22.3251   11.6403 H   0  0  0  0  0  0  0  0  0  0  0  0  # atno 3767 bound_to 3762
    1.7068  -20.4451    9.5398 H   0  0  0  0  0  0  0  0  0  0  0  0  # atno 3841 bound_to 3832
    4.7187   -9.8095    4.9483 LP  0  0  0  0  0  0  0  0  0  0  0  0  # atno 4297 bound_to 1298
    3.3730   -9.8365    4.0236 LP  0  0  0  0  0  0  0  0  0  0  0  0  # atno 4298 bound_to 1298
    0.6975   -8.1645    7.0868 LP  0  0  0  0  0  0  0  0  0  0  0  0  # atno 4299 bound_to 2456
    0.8856   -9.2788    8.2656 LP  0  0  0  0  0  0  0  0  0  0  0  0  # atno 4300 bound_to 2456
    2.6125   -9.2574    5.2700 LP  0  0  0  0  0  0  0  0  0  0  0  0  # atno 4301 bound_to 2510
    2.0292   -7.8953    5.9565 LP  0  0  0  0  0  0  0  0  0  0  0  0  # atno 4302 bound_to 2510
   -3.0953  -17.2265   14.8546 LP  0  0  0  0  0  0  0  0  0  0  0  0  # atno 4306 bound_to 3712
   -3.5114  -16.7331   13.3546 LP  0  0  0  0  0  0  0  0  0  0  0  0  # atno 4307 bound_to 3712
    2.1992  -19.6661    8.2257 LP  0  0  0  0  0  0  0  0  0  0  0  0  # atno 4314 bound_to 3832
    3.0586  -20.9220    8.8180 LP  0  0  0  0  0  0  0  0  0  0  0  0  # atno 4315 bound_to 3832
   -4.3386  -23.3329   10.3567 LP  0  0  0  0  0  0  0  0  0  0  0  0  # atno 4318 bound_to 3762
   -5.5106  -22.2169   10.5744 LP  0  0  0  0  0  0  0  0  0  0  0  0  # atno 4319 bound_to 3762
   -5.4874   -5.1501    8.3203 LP  0  0  0  0  0  0  0  0  0  0  0  0  # atno 4320 bound_to 2467
   -3.9371   -4.8340    7.9164 LP  0  0  0  0  0  0  0  0  0  0  0  0  # atno 4321 bound_to 2467

> <Gold.Score>
     Score     S(PLP)   S(hbond)     S(cho)   S(metal)  DE(clash)   DE(tors)     intcor
     45.35     -37.36       2.99       0.00       0.00       0.00       1.40       1.80

> <Gold.PLP.Fitness>
45.3481

> <Gold.PLP.PLP>
-37.3647

> <Gold.PLP.part.hbond>
-3.9621

> <Gold.PLP.part.metal>
0.0000

> <Gold.PLP.part.buried>
-5.0060

> <Gold.PLP.part.nonpolar>
-29.1299

> <Gold.PLP.part.repulsive>
0.2910

> <Gold.PLP.ligand.clash>
0.0000

> <Gold.PLP.ligand.torsion>
1.3962

> <Gold.PLP.Chemscore.Hbond>
2.9913

> <Gold.PLP.Chemscore.CHOScore>
0.0000

> <Gold.PLP.Chemscore.Metal>
0.0000

> <Gold.Chemscore.Hbonds>
donor molecule, donor type, donor heavy atom, donor atom, acceptor molecule, acceptor atom, score
      P1  H  3712  3721       L1    17  0.99
      P1  H  3832  3841       L1    16  1.00
      P1  H  3762  3767       L1     3  1.00

> <Gold.PLP.Chemscore.Internal.Correction>
1.8021

