#       Name:                EN300-44899_i001
#       Creating user name   fsindt
#       Creation time:       Thu Mar  2 04:57:44 2023


#       File generated by GOLD software.
#

@<TRIPOS>MOLECULE
EN300-44899_i001|acide_1|mol2|12435|dock18
    26    27     1
SMALL
USER_CHARGES


@<TRIPOS>ATOM
      1 O1          -0.3220 -15.4561  12.9604 O.co2          1 <1>               -1.0000
      2 C2          -0.0027 -16.4820  13.5445 C.2            1 <1>                0.0000
      3 O3           0.3925 -16.4298  14.7007 O.co2          1 <1>                0.0000
      4 C4          -0.1001 -17.7830  12.8566 C.ar           1 <1>                0.0000
      5 C5          -0.3536 -17.8326  11.4834 C.ar           1 <1>                0.0000
      6 C6          -0.4438 -19.0506  10.8422 C.ar           1 <1>                0.0000
      7 C7          -0.2840 -20.2261  11.5542 C.ar           1 <1>                0.0000
      8 Cl8         -0.3987 -21.7541  10.7383 Cl             1 <1>                0.0000
      9 C9          -0.0311 -20.1877  12.9224 C.ar           1 <1>                0.0000
     10 C10          0.0665 -18.9698  13.5747 C.ar           1 <1>                0.0000
     11 N11          0.1291 -21.3783  13.6372 N.pl3          1 <1>                0.0000
     12 C12          1.3682 -21.8531  14.2712 C.3            1 <1>                0.0000
     13 C13          1.3871 -23.3932  14.3095 C.3            1 <1>                0.0000
     14 C14         -0.0386 -23.7829  14.7961 C.3            1 <1>                0.0000
     15 S15         -1.0531 -22.5197  13.9345 S.o2           1 <1>                0.0000
     16 O16         -1.9648 -21.8948  14.8276 O.2            1 <1>                0.0000
     17 O17         -1.4556 -22.9718  12.6489 O.2            1 <1>                0.0000
     18 H18         -0.4794 -16.9173  10.9240 H              1 <1>                0.0000
     19 H19         -0.6401 -19.0869   9.7808 H              1 <1>                0.0000
     20 H20          0.2630 -18.9378  14.6362 H              1 <1>                0.0000
     21 H21          2.2257 -21.4954  13.7012 H              1 <1>                0.0000
     22 H22          1.4249 -21.4657  15.2884 H              1 <1>                0.0000
     23 H23          1.5738 -23.7970  13.3145 H              1 <1>                0.0000
     24 H24          2.1402 -23.7478  15.0132 H              1 <1>                0.0000
     25 H25         -0.3030 -24.7900  14.4737 H              1 <1>                0.0000
     26 H26         -0.1264 -23.6823  15.8779 H              1 <1>                0.0000
@<TRIPOS>BOND
    1    1    2 ar    
    2    2    3 ar    
    3    2    4 1     
    4    4    5 ar    
    5    4   10 ar    
    6    5    6 ar    
    7    5   18 1     
    8    6    7 ar    
    9    6   19 1     
   10    7    8 1     
   11    7    9 ar    
   12    9   10 ar    
   13    9   11 1     
   14   10   20 1     
   15   11   12 1     
   16   11   15 1     
   17   12   13 1     
   18   12   21 1     
   19   12   22 1     
   20   13   14 1     
   21   13   23 1     
   22   13   24 1     
   23   14   15 1     
   24   14   25 1     
   25   14   26 1     
   26   15   16 2     
   27   15   17 2     
@<TRIPOS>SUBSTRUCTURE
      1 ****           1
@<TRIPOS>COMMENT
> <Gold.Version>
2022.2.0

> <Gold.Id.Protein>
3pbl|protein|mol2

> <Gold.Protein.RotatedTorsions>
[ 1303 1298 1297 1294 ] final -138.09 input  179.99 | X-H torsion
[ 2461 2456 2455 2452 ] final   83.15 input   30.03 | X-H torsion
[ 2515 2510 2509 2506 ] final -118.67 input  -89.99 | X-H torsion
[ 3721 3712 3711 3710 ] final -145.19 input -179.91 | X-H torsion
[ 3841 3832 3831 3830 ] final    9.51 input -179.91 | X-H torsion
[ 3767 3762 3761 3758 ] final   19.11 input  -89.99 | X-H torsion
[ 2472 2467 2466 2463 ] final   68.05 input  -89.97 | X-H torsion

> <Gold.Protein.ActiveResidues>
 VAL82   VAL86   LEU89   PHE106  VAL107  ASP110  VAL111  MET112  CYS114  THR115 
 CYS181  SER182  ILE183  PHE188  VAL189  ILE190  SER192  SER193  SER196  TRP342 
 PHE345  PHE346  HIS349  VAL350  TYR365  THR369  GLY372  TYR373 

> <Gold.Protein.RotatedAtoms>
    4.4706   -8.5036    4.2698 H   0  0  0  0  0  0  0  0  0  0  0  0  # atno 1303 bound_to 1298
    2.1074   -8.2265    7.6410 H   0  0  0  0  0  0  0  0  0  0  0  0  # atno 2461 bound_to 2456
   -4.7734   -4.8390    7.6728 H   0  0  0  0  0  0  0  0  0  0  0  0  # atno 2472 bound_to 2467
    2.7212   -9.1964    4.9817 H   0  0  0  0  0  0  0  0  0  0  0  0  # atno 2515 bound_to 2510
   -3.3159  -16.5382   14.0603 H   0  0  0  0  0  0  0  0  0  0  0  0  # atno 3721 bound_to 3712
   -5.1203  -22.9424   10.0700 H   0  0  0  0  0  0  0  0  0  0  0  0  # atno 3767 bound_to 3762
    1.8270  -20.5917    9.5966 H   0  0  0  0  0  0  0  0  0  0  0  0  # atno 3841 bound_to 3832
    4.5602  -10.0019    4.9128 LP  0  0  0  0  0  0  0  0  0  0  0  0  # atno 4297 bound_to 1298
    3.3312   -9.6162    3.9091 LP  0  0  0  0  0  0  0  0  0  0  0  0  # atno 4298 bound_to 1298
    0.5470   -8.2941    7.1637 LP  0  0  0  0  0  0  0  0  0  0  0  0  # atno 4299 bound_to 2456
    1.0836   -9.2875    8.3434 LP  0  0  0  0  0  0  0  0  0  0  0  0  # atno 4300 bound_to 2456
    2.0436   -8.1872    6.0716 LP  0  0  0  0  0  0  0  0  0  0  0  0  # atno 4301 bound_to 2510
    2.5318   -7.6151    4.6221 LP  0  0  0  0  0  0  0  0  0  0  0  0  # atno 4302 bound_to 2510
   -2.9811  -17.7111   13.0162 LP  0  0  0  0  0  0  0  0  0  0  0  0  # atno 4306 bound_to 3712
   -2.7183  -17.9217   14.6141 LP  0  0  0  0  0  0  0  0  0  0  0  0  # atno 4307 bound_to 3712
    2.0037  -19.6357    8.3195 LP  0  0  0  0  0  0  0  0  0  0  0  0  # atno 4314 bound_to 3832
    3.1152  -20.7831    8.6586 LP  0  0  0  0  0  0  0  0  0  0  0  0  # atno 4315 bound_to 3832
   -5.1000  -21.9159   11.3400 LP  0  0  0  0  0  0  0  0  0  0  0  0  # atno 4318 bound_to 3762
   -3.9073  -23.0168   11.1608 LP  0  0  0  0  0  0  0  0  0  0  0  0  # atno 4319 bound_to 3762
   -3.6785   -5.1406    8.8462 LP  0  0  0  0  0  0  0  0  0  0  0  0  # atno 4320 bound_to 2467
   -5.2651   -5.4138    9.1200 LP  0  0  0  0  0  0  0  0  0  0  0  0  # atno 4321 bound_to 2467

> <Gold.Score>
     Score     S(PLP)   S(hbond)     S(cho)   S(metal)  DE(clash)   DE(tors)     intcor
     37.00     -35.43       0.81       0.00       0.00       0.00       1.32       1.77

> <Gold.PLP.Fitness>
37.0046

> <Gold.PLP.PLP>
-35.4328

> <Gold.PLP.part.hbond>
-0.8088

> <Gold.PLP.part.metal>
0.0000

> <Gold.PLP.part.buried>
-5.3501

> <Gold.PLP.part.nonpolar>
-30.0921

> <Gold.PLP.part.repulsive>
0.1013

> <Gold.PLP.ligand.clash>
0.0000

> <Gold.PLP.ligand.torsion>
1.3173

> <Gold.PLP.Chemscore.Hbond>
0.8125

> <Gold.PLP.Chemscore.CHOScore>
0.0000

> <Gold.PLP.Chemscore.Metal>
0.0000

> <Gold.Chemscore.Hbonds>
donor molecule, donor type, donor heavy atom, donor atom, acceptor molecule, acceptor atom, score
      P1  H  2305  2313       L1     3  0.81

> <Gold.PLP.Chemscore.Internal.Correction>
1.7688

