#       Name:                EN300-44899_i001
#       Creating user name   fsindt
#       Creation time:       Thu Mar  2 04:57:44 2023


#       File generated by GOLD software.
#

@<TRIPOS>MOLECULE
EN300-44899_i001|acide_1|mol2|12435|dock20
    26    27     1
SMALL
USER_CHARGES


@<TRIPOS>ATOM
      1 O1          -3.7014 -25.1918  15.6055 O.co2          1 <1>               -1.0000
      2 C2          -3.4309 -24.1323  15.0578 C.2            1 <1>                0.0000
      3 O3          -4.3278 -23.3755  14.7134 O.co2          1 <1>                0.0000
      4 C4          -2.0229 -23.7645  14.8182 C.ar           1 <1>                0.0000
      5 C5          -0.9988 -24.6525  15.1576 C.ar           1 <1>                0.0000
      6 C6           0.3173 -24.3062  14.9321 C.ar           1 <1>                0.0000
      7 C7           0.6286 -23.0809  14.3700 C.ar           1 <1>                0.0000
      8 Cl8          2.2880 -22.6545  14.0896 Cl             1 <1>                0.0000
      9 C9          -0.3839 -22.1891  14.0283 C.ar           1 <1>                0.0000
     10 C10         -1.7088 -22.5293  14.2459 C.ar           1 <1>                0.0000
     11 N11         -0.0639 -20.9522  13.4612 N.pl3          1 <1>                0.0000
     12 C12          0.0617 -20.6591  12.0255 C.3            1 <1>                0.0000
     13 C13          1.0683 -19.5137  11.8049 C.3            1 <1>                0.0000
     14 C14          0.6826 -18.4517  12.8748 C.3            1 <1>                0.0000
     15 S15          0.2392 -19.5338  14.2888 S.o2           1 <1>                0.0000
     16 O16         -1.0071 -19.1546  14.8565 O.2            1 <1>                0.0000
     17 O17          1.3739 -19.8174  15.0958 O.2            1 <1>                0.0000
     18 H18         -1.2377 -25.6098  15.5969 H              1 <1>                0.0000
     19 H19          1.1074 -24.9939  15.1954 H              1 <1>                0.0000
     20 H20         -2.4960 -21.8389  13.9810 H              1 <1>                0.0000
     21 H21          0.4091 -21.5508  11.5037 H              1 <1>                0.0000
     22 H22         -0.9109 -20.3663  11.6302 H              1 <1>                0.0000
     23 H23          2.0872 -19.8653  11.9669 H              1 <1>                0.0000
     24 H24          0.9617 -19.1005  10.8019 H              1 <1>                0.0000
     25 H25          1.5305 -17.8112  13.1171 H              1 <1>                0.0000
     26 H26         -0.1747 -17.8611  12.5517 H              1 <1>                0.0000
@<TRIPOS>BOND
    1    1    2 ar    
    2    2    3 ar    
    3    2    4 1     
    4    4    5 ar    
    5    4   10 ar    
    6    5    6 ar    
    7    5   18 1     
    8    6    7 ar    
    9    6   19 1     
   10    7    8 1     
   11    7    9 ar    
   12    9   10 ar    
   13    9   11 1     
   14   10   20 1     
   15   11   12 1     
   16   11   15 1     
   17   12   13 1     
   18   12   21 1     
   19   12   22 1     
   20   13   14 1     
   21   13   23 1     
   22   13   24 1     
   23   14   15 1     
   24   14   25 1     
   25   14   26 1     
   26   15   16 2     
   27   15   17 2     
@<TRIPOS>SUBSTRUCTURE
      1 ****           1
@<TRIPOS>COMMENT
> <Gold.Version>
2022.2.0

> <Gold.Id.Protein>
3pbl|protein|mol2

> <Gold.Protein.RotatedTorsions>
[ 1303 1298 1297 1294 ] final -152.81 input  179.99 | X-H torsion
[ 2461 2456 2455 2452 ] final   89.98 input   30.03 | X-H torsion
[ 2515 2510 2509 2506 ] final  140.27 input  -89.99 | X-H torsion
[ 3721 3712 3711 3710 ] final   -2.66 input -179.91 | X-H torsion
[ 3841 3832 3831 3830 ] final -122.64 input -179.91 | X-H torsion
[ 3767 3762 3761 3758 ] final   51.48 input  -89.99 | X-H torsion
[ 2472 2467 2466 2463 ] final  119.00 input  -89.97 | X-H torsion

> <Gold.Protein.ActiveResidues>
 VAL82   VAL86   LEU89   PHE106  VAL107  ASP110  VAL111  MET112  CYS114  THR115 
 CYS181  SER182  ILE183  PHE188  VAL189  ILE190  SER192  SER193  SER196  TRP342 
 PHE345  PHE346  HIS349  VAL350  TYR365  THR369  GLY372  TYR373 

> <Gold.Protein.RotatedAtoms>
    4.6394   -8.5887    4.4201 H   0  0  0  0  0  0  0  0  0  0  0  0  # atno 1303 bound_to 1298
    2.1382   -8.2974    7.7226 H   0  0  0  0  0  0  0  0  0  0  0  0  # atno 2461 bound_to 2456
   -5.4103   -5.0698    8.1187 H   0  0  0  0  0  0  0  0  0  0  0  0  # atno 2472 bound_to 2467
    2.1004   -8.4915    6.0928 H   0  0  0  0  0  0  0  0  0  0  0  0  # atno 2515 bound_to 2510
   -2.4929  -17.9405   14.2786 H   0  0  0  0  0  0  0  0  0  0  0  0  # atno 3721 bound_to 3712
   -4.6877  -23.2334   10.1369 H   0  0  0  0  0  0  0  0  0  0  0  0  # atno 3767 bound_to 3762
    2.2597  -19.6005    8.4412 H   0  0  0  0  0  0  0  0  0  0  0  0  # atno 3841 bound_to 3832
    4.3786  -10.1444    4.8419 LP  0  0  0  0  0  0  0  0  0  0  0  0  # atno 4297 bound_to 1298
    3.3440   -9.3885    3.8296 LP  0  0  0  0  0  0  0  0  0  0  0  0  # atno 4298 bound_to 1298
    0.6223   -8.2234    7.1194 LP  0  0  0  0  0  0  0  0  0  0  0  0  # atno 4299 bound_to 2456
    0.9776   -9.2873    8.3062 LP  0  0  0  0  0  0  0  0  0  0  0  0  # atno 4300 bound_to 2456
    2.3994   -7.4648    4.8591 LP  0  0  0  0  0  0  0  0  0  0  0  0  # atno 4301 bound_to 2510
    2.7971   -9.0427    4.7229 LP  0  0  0  0  0  0  0  0  0  0  0  0  # atno 4302 bound_to 2510
   -3.4565  -16.6638   14.4182 LP  0  0  0  0  0  0  0  0  0  0  0  0  # atno 4306 bound_to 3712
   -3.1930  -17.3499   12.9599 LP  0  0  0  0  0  0  0  0  0  0  0  0  # atno 4307 bound_to 3712
    3.0463  -20.9408    8.8425 LP  0  0  0  0  0  0  0  0  0  0  0  0  # atno 4314 bound_to 3832
    1.5727  -20.6229    9.4703 LP  0  0  0  0  0  0  0  0  0  0  0  0  # atno 4315 bound_to 3832
   -5.4143  -22.0033   10.9279 LP  0  0  0  0  0  0  0  0  0  0  0  0  # atno 4318 bound_to 3762
   -4.0254  -22.6386   11.5060 LP  0  0  0  0  0  0  0  0  0  0  0  0  # atno 4319 bound_to 3762
   -3.7888   -4.8790    8.0866 LP  0  0  0  0  0  0  0  0  0  0  0  0  # atno 4320 bound_to 2467
   -4.5180   -5.4448    9.4338 LP  0  0  0  0  0  0  0  0  0  0  0  0  # atno 4321 bound_to 2467

> <Gold.Score>
     Score     S(PLP)   S(hbond)     S(cho)   S(metal)  DE(clash)   DE(tors)     intcor
     36.97     -35.21       1.00       0.00       0.00       0.00       1.50       1.77

> <Gold.PLP.Fitness>
36.9729

> <Gold.PLP.PLP>
-35.2110

> <Gold.PLP.part.hbond>
-3.0000

> <Gold.PLP.part.metal>
0.0000

> <Gold.PLP.part.buried>
-4.4995

> <Gold.PLP.part.nonpolar>
-29.1155

> <Gold.PLP.part.repulsive>
0.2711

> <Gold.PLP.ligand.clash>
0.0000

> <Gold.PLP.ligand.torsion>
1.5034

> <Gold.PLP.Chemscore.Hbond>
1.0000

> <Gold.PLP.Chemscore.CHOScore>
0.0000

> <Gold.PLP.Chemscore.Metal>
0.0000

> <Gold.Chemscore.Hbonds>
donor molecule, donor type, donor heavy atom, donor atom, acceptor molecule, acceptor atom, score
      P1  H  3712  3721       L1    16  1.00

> <Gold.PLP.Chemscore.Internal.Correction>
1.7688

