#       Name:                EN300-44899_i001
#       Creating user name   fsindt
#       Creation time:       Thu Mar  2 04:57:42 2023


#       File generated by GOLD software.
#

@<TRIPOS>MOLECULE
EN300-44899_i001|acide_1|mol2|12435|dock12
    26    27     1
SMALL
USER_CHARGES


@<TRIPOS>ATOM
      1 O1           0.4990 -23.1575  15.3540 O.co2          1 <1>               -1.0000
      2 C2           0.0233 -23.3579  14.2453 C.2            1 <1>                0.0000
      3 O3          -0.3723 -24.4749  13.9424 O.co2          1 <1>                0.0000
      4 C4          -0.0790 -22.2513  13.2757 C.ar           1 <1>                0.0000
      5 C5          -0.6638 -22.4668  12.0251 C.ar           1 <1>                0.0000
      6 C6          -0.7587 -21.4301  11.1201 C.ar           1 <1>                0.0000
      7 C7          -0.2763 -20.1749  11.4458 C.ar           1 <1>                0.0000
      8 Cl8         -0.4007 -18.8764  10.3003 Cl             1 <1>                0.0000
      9 C9           0.3081 -19.9496  12.6888 C.ar           1 <1>                0.0000
     10 C10          0.4034 -20.9826  13.6066 C.ar           1 <1>                0.0000
     11 N11          0.7943 -18.6797  13.0127 N.pl3          1 <1>                0.0000
     12 C12          2.1890 -18.2268  12.9006 C.3            1 <1>                0.0000
     13 C13          2.4783 -17.1378  13.9514 C.3            1 <1>                0.0000
     14 C14          1.2497 -16.1865  13.8671 C.3            1 <1>                0.0000
     15 S15         -0.1028 -17.3955  13.5913 S.o2           1 <1>                0.0000
     16 O16         -0.9352 -16.9992  12.5100 O.2            1 <1>                0.0000
     17 O17         -0.6433 -17.8533  14.8232 O.2            1 <1>                0.0000
     18 H18         -1.0413 -23.4453  11.7669 H              1 <1>                0.0000
     19 H19         -1.2108 -21.5988  10.1539 H              1 <1>                0.0000
     20 H20          0.8561 -20.8098  14.5718 H              1 <1>                0.0000
     21 H21          2.8576 -19.0722  13.0631 H              1 <1>                0.0000
     22 H22          2.3578 -17.8205  11.9034 H              1 <1>                0.0000
     23 H23          2.5521 -17.5777  14.9459 H              1 <1>                0.0000
     24 H24          3.3937 -16.6012  13.7021 H              1 <1>                0.0000
     25 H25          1.1092 -15.6414  14.8004 H              1 <1>                0.0000
     26 H26          1.3392 -15.5021  13.0235 H              1 <1>                0.0000
@<TRIPOS>BOND
    1    1    2 ar    
    2    2    3 ar    
    3    2    4 1     
    4    4    5 ar    
    5    4   10 ar    
    6    5    6 ar    
    7    5   18 1     
    8    6    7 ar    
    9    6   19 1     
   10    7    8 1     
   11    7    9 ar    
   12    9   10 ar    
   13    9   11 1     
   14   10   20 1     
   15   11   12 1     
   16   11   15 1     
   17   12   13 1     
   18   12   21 1     
   19   12   22 1     
   20   13   14 1     
   21   13   23 1     
   22   13   24 1     
   23   14   15 1     
   24   14   25 1     
   25   14   26 1     
   26   15   16 2     
   27   15   17 2     
@<TRIPOS>SUBSTRUCTURE
      1 ****           1
@<TRIPOS>COMMENT
> <Gold.Version>
2022.2.0

> <Gold.Id.Protein>
3pbl|protein|mol2

> <Gold.Protein.RotatedTorsions>
[ 1303 1298 1297 1294 ] final   42.63 input  179.99 | X-H torsion
[ 2461 2456 2455 2452 ] final  -89.84 input   30.03 | X-H torsion
[ 2515 2510 2509 2506 ] final  147.29 input  -89.99 | X-H torsion
[ 3721 3712 3711 3710 ] final  -12.93 input -179.91 | X-H torsion
[ 3841 3832 3831 3830 ] final   10.26 input -179.91 | X-H torsion
[ 3767 3762 3761 3758 ] final  -27.81 input  -89.99 | X-H torsion
[ 2472 2467 2466 2463 ] final   62.78 input  -89.97 | X-H torsion

> <Gold.Protein.ActiveResidues>
 VAL82   VAL86   LEU89   PHE106  VAL107  ASP110  VAL111  MET112  CYS114  THR115 
 CYS181  SER182  ILE183  PHE188  VAL189  ILE190  SER192  SER193  SER196  TRP342 
 PHE345  PHE346  HIS349  VAL350  TYR365  THR369  GLY372  TYR373 

> <Gold.Protein.RotatedAtoms>
    3.7794  -10.2465    4.4658 H   0  0  0  0  0  0  0  0  0  0  0  0  # atno 1303 bound_to 1298
    0.3530   -8.9060    7.7074 H   0  0  0  0  0  0  0  0  0  0  0  0  # atno 2461 bound_to 2456
   -4.6883   -4.8257    7.6620 H   0  0  0  0  0  0  0  0  0  0  0  0  # atno 2472 bound_to 2467
    2.1310   -8.6016    6.0768 H   0  0  0  0  0  0  0  0  0  0  0  0  # atno 2515 bound_to 2510
   -2.5245  -17.8650   14.4104 H   0  0  0  0  0  0  0  0  0  0  0  0  # atno 3721 bound_to 3712
   -5.4929  -22.3773   10.3950 H   0  0  0  0  0  0  0  0  0  0  0  0  # atno 3767 bound_to 3762
    1.8347  -20.5996    9.5989 H   0  0  0  0  0  0  0  0  0  0  0  0  # atno 3841 bound_to 3832
    3.6731   -8.7540    3.8121 LP  0  0  0  0  0  0  0  0  0  0  0  0  # atno 4297 bound_to 1298
    4.9097   -9.1205    4.8137 LP  0  0  0  0  0  0  0  0  0  0  0  0  # atno 4298 bound_to 1298
    1.8675   -8.9839    8.3138 LP  0  0  0  0  0  0  0  0  0  0  0  0  # atno 4299 bound_to 2456
    1.5170   -7.9183    7.1270 LP  0  0  0  0  0  0  0  0  0  0  0  0  # atno 4300 bound_to 2456
    2.3505   -7.4324    4.9584 LP  0  0  0  0  0  0  0  0  0  0  0  0  # atno 4301 bound_to 2510
    2.8154   -8.9650    4.6397 LP  0  0  0  0  0  0  0  0  0  0  0  0  # atno 4302 bound_to 2510
   -3.5053  -16.6022   14.2659 LP  0  0  0  0  0  0  0  0  0  0  0  0  # atno 4306 bound_to 3712
   -3.1078  -17.4986   12.9601 LP  0  0  0  0  0  0  0  0  0  0  0  0  # atno 4307 bound_to 3712
    1.9930  -19.6352    8.3257 LP  0  0  0  0  0  0  0  0  0  0  0  0  # atno 4314 bound_to 3832
    3.1171  -20.7745    8.6497 LP  0  0  0  0  0  0  0  0  0  0  0  0  # atno 4315 bound_to 3832
   -4.4644  -22.1720   11.6467 LP  0  0  0  0  0  0  0  0  0  0  0  0  # atno 4318 bound_to 3762
   -4.1703  -23.3257   10.5291 LP  0  0  0  0  0  0  0  0  0  0  0  0  # atno 4319 bound_to 3762
   -3.7084   -5.1711    8.9217 LP  0  0  0  0  0  0  0  0  0  0  0  0  # atno 4320 bound_to 2467
   -5.3202   -5.3966    9.0553 LP  0  0  0  0  0  0  0  0  0  0  0  0  # atno 4321 bound_to 2467

> <Gold.Score>
     Score     S(PLP)   S(hbond)     S(cho)   S(metal)  DE(clash)   DE(tors)     intcor
     40.21     -38.37       1.00       0.00       0.00       0.00       1.48       1.80

> <Gold.PLP.Fitness>
40.2093

> <Gold.PLP.PLP>
-38.3655

> <Gold.PLP.part.hbond>
-2.0000

> <Gold.PLP.part.metal>
0.0000

> <Gold.PLP.part.buried>
-4.4909

> <Gold.PLP.part.nonpolar>
-32.5600

> <Gold.PLP.part.repulsive>
0.2539

> <Gold.PLP.ligand.clash>
0.0000

> <Gold.PLP.ligand.torsion>
1.4792

> <Gold.PLP.Chemscore.Hbond>
1.0000

> <Gold.PLP.Chemscore.CHOScore>
0.0000

> <Gold.PLP.Chemscore.Metal>
0.0000

> <Gold.Chemscore.Hbonds>
donor molecule, donor type, donor heavy atom, donor atom, acceptor molecule, acceptor atom, score
      P1  H  3712  3721       L1    17  1.00

> <Gold.PLP.Chemscore.Internal.Correction>
1.8021

