#       Name:                EN300-44899_i001
#       Creating user name   fsindt
#       Creation time:       Thu Mar  2 04:57:43 2023


#       File generated by GOLD software.
#

@<TRIPOS>MOLECULE
EN300-44899_i001|acide_1|mol2|12435|dock15
    26    27     1
SMALL
USER_CHARGES


@<TRIPOS>ATOM
      1 O1           0.7038 -10.8803   8.0807 O.co2          1 <1>               -1.0000
      2 C2           0.3897 -11.3691   9.1569 C.2            1 <1>                0.0000
      3 O3           0.1925 -10.6455  10.1230 O.co2          1 <1>                0.0000
      4 C4           0.2430 -12.8307   9.2882 C.ar           1 <1>                0.0000
      5 C5          -0.2384 -13.5861   8.2157 C.ar           1 <1>                0.0000
      6 C6          -0.3743 -14.9531   8.3409 C.ar           1 <1>                0.0000
      7 C7          -0.0353 -15.5811   9.5261 C.ar           1 <1>                0.0000
      8 Cl8         -0.2093 -17.3021   9.6738 Cl             1 <1>                0.0000
      9 C9           0.4453 -14.8380  10.6004 C.ar           1 <1>                0.0000
     10 C10          0.5904 -13.4655  10.4833 C.ar           1 <1>                0.0000
     11 N11          0.7859 -15.4773  11.7959 N.pl3          1 <1>                0.0000
     12 C12          2.1454 -15.6738  12.3215 C.3            1 <1>                0.0000
     13 C13          2.2012 -16.9506  13.1818 C.3            1 <1>                0.0000
     14 C14          0.9309 -16.8670  14.0766 C.3            1 <1>                0.0000
     15 S15         -0.2762 -16.1524  12.8936 S.o2           1 <1>                0.0000
     16 O16         -0.9727 -15.0552  13.4683 O.2            1 <1>                0.0000
     17 O17         -0.9518 -17.1710  12.1689 O.2            1 <1>                0.0000
     18 H18         -0.5045 -13.0996   7.2889 H              1 <1>                0.0000
     19 H19         -0.7469 -15.5351   7.5109 H              1 <1>                0.0000
     20 H20          0.9634 -12.8870  11.3155 H              1 <1>                0.0000
     21 H21          2.8441 -15.7675  11.4901 H              1 <1>                0.0000
     22 H22          2.4245 -14.8147  12.9315 H              1 <1>                0.0000
     23 H23          2.1645 -17.8379  12.5499 H              1 <1>                0.0000
     24 H24          3.1010 -16.9567  13.7970 H              1 <1>                0.0000
     25 H25          0.6191 -17.8564  14.4110 H              1 <1>                0.0000
     26 H26          1.0893 -16.1993  14.9234 H              1 <1>                0.0000
@<TRIPOS>BOND
    1    1    2 ar    
    2    2    3 ar    
    3    2    4 1     
    4    4    5 ar    
    5    4   10 ar    
    6    5    6 ar    
    7    5   18 1     
    8    6    7 ar    
    9    6   19 1     
   10    7    8 1     
   11    7    9 ar    
   12    9   10 ar    
   13    9   11 1     
   14   10   20 1     
   15   11   12 1     
   16   11   15 1     
   17   12   13 1     
   18   12   21 1     
   19   12   22 1     
   20   13   14 1     
   21   13   23 1     
   22   13   24 1     
   23   14   15 1     
   24   14   25 1     
   25   14   26 1     
   26   15   16 2     
   27   15   17 2     
@<TRIPOS>SUBSTRUCTURE
      1 ****           1
@<TRIPOS>COMMENT
> <Gold.Version>
2022.2.0

> <Gold.Id.Protein>
3pbl|protein|mol2

> <Gold.Protein.RotatedTorsions>
[ 1303 1298 1297 1294 ] final   96.93 input  179.99 | X-H torsion
[ 2461 2456 2455 2452 ] final -151.52 input   30.03 | X-H torsion
[ 2515 2510 2509 2506 ] final  120.50 input  -89.99 | X-H torsion
[ 3721 3712 3711 3710 ] final   90.83 input -179.91 | X-H torsion
[ 3841 3832 3831 3830 ] final   28.01 input -179.91 | X-H torsion
[ 3767 3762 3761 3758 ] final  -97.28 input  -89.99 | X-H torsion
[ 2472 2467 2466 2463 ] final  -64.85 input  -89.97 | X-H torsion

> <Gold.Protein.ActiveResidues>
 VAL82   VAL86   LEU89   PHE106  VAL107  ASP110  VAL111  MET112  CYS114  THR115 
 CYS181  SER182  ILE183  PHE188  VAL189  ILE190  SER192  SER193  SER196  TRP342 
 PHE345  PHE346  HIS349  VAL350  TYR365  THR369  GLY372  TYR373 

> <Gold.Protein.RotatedAtoms>
    4.5011  -10.0549    4.8929 H   0  0  0  0  0  0  0  0  0  0  0  0  # atno 1303 bound_to 1298
    1.0005   -9.2883    8.3153 H   0  0  0  0  0  0  0  0  0  0  0  0  # atno 2461 bound_to 2456
   -3.7644   -5.2153    9.0250 H   0  0  0  0  0  0  0  0  0  0  0  0  # atno 2472 bound_to 2467
    2.0424   -8.1741    6.0683 H   0  0  0  0  0  0  0  0  0  0  0  0  # atno 2515 bound_to 2510
   -2.7899  -17.6053   13.0991 H   0  0  0  0  0  0  0  0  0  0  0  0  # atno 3721 bound_to 3712
   -5.1429  -21.9140   11.2992 H   0  0  0  0  0  0  0  0  0  0  0  0  # atno 3767 bound_to 3762
    2.0408  -20.7680    9.6220 H   0  0  0  0  0  0  0  0  0  0  0  0  # atno 3841 bound_to 3832
    3.3297   -9.5400    3.8785 LP  0  0  0  0  0  0  0  0  0  0  0  0  # atno 4297 bound_to 1298
    4.5312   -8.5261    4.3200 LP  0  0  0  0  0  0  0  0  0  0  0  0  # atno 4298 bound_to 1298
    2.1323   -8.2816    7.7046 LP  0  0  0  0  0  0  0  0  0  0  0  0  # atno 4299 bound_to 2456
    0.6049   -8.2385    7.1284 LP  0  0  0  0  0  0  0  0  0  0  0  0  # atno 4300 bound_to 2456
    2.5374   -7.6237    4.6130 LP  0  0  0  0  0  0  0  0  0  0  0  0  # atno 4301 bound_to 2510
    2.7171   -9.2015    4.9936 LP  0  0  0  0  0  0  0  0  0  0  0  0  # atno 4302 bound_to 2510
   -2.7582  -17.8407   14.6870 LP  0  0  0  0  0  0  0  0  0  0  0  0  # atno 4306 bound_to 3712
   -3.5484  -16.5600   14.0529 LP  0  0  0  0  0  0  0  0  0  0  0  0  # atno 4307 bound_to 3712
    1.7532  -19.6603    8.4967 LP  0  0  0  0  0  0  0  0  0  0  0  0  # atno 4314 bound_to 3832
    3.1187  -20.5548    8.4521 LP  0  0  0  0  0  0  0  0  0  0  0  0  # atno 4315 bound_to 3832
   -3.9081  -22.9787   11.2064 LP  0  0  0  0  0  0  0  0  0  0  0  0  # atno 4318 bound_to 3762
   -5.0766  -22.9821   10.0656 LP  0  0  0  0  0  0  0  0  0  0  0  0  # atno 4319 bound_to 3762
   -5.3886   -5.3677    8.9543 LP  0  0  0  0  0  0  0  0  0  0  0  0  # atno 4320 bound_to 2467
   -4.5637   -4.8105    7.6599 LP  0  0  0  0  0  0  0  0  0  0  0  0  # atno 4321 bound_to 2467

> <Gold.Score>
     Score     S(PLP)   S(hbond)     S(cho)   S(metal)  DE(clash)   DE(tors)     intcor
     38.27     -34.34       1.92       0.00       0.00       0.00       1.81       1.80

> <Gold.PLP.Fitness>
38.2724

> <Gold.PLP.PLP>
-34.3405

> <Gold.PLP.part.hbond>
-3.1221

> <Gold.PLP.part.metal>
0.0000

> <Gold.PLP.part.buried>
3.3927

> <Gold.PLP.part.nonpolar>
-35.6613

> <Gold.PLP.part.repulsive>
0.5020

> <Gold.PLP.ligand.clash>
0.0000

> <Gold.PLP.ligand.torsion>
1.8149

> <Gold.PLP.Chemscore.Hbond>
1.9199

> <Gold.PLP.Chemscore.CHOScore>
0.0000

> <Gold.PLP.Chemscore.Metal>
0.0000

> <Gold.Chemscore.Hbonds>
donor molecule, donor type, donor heavy atom, donor atom, acceptor molecule, acceptor atom, score
      P1  H  2456  2461       L1     1  1.00
      P1  H  3712  3721       L1    17  0.92

> <Gold.PLP.Chemscore.Internal.Correction>
1.8021

