#       Name:                EN300-44899_i001
#       Creating user name   fsindt
#       Creation time:       Thu Mar  2 04:57:40 2023


#       File generated by GOLD software.
#

@<TRIPOS>MOLECULE
EN300-44899_i001|acide_1|mol2|12435|dock5
    26    27     1
SMALL
USER_CHARGES


@<TRIPOS>ATOM
      1 O1           1.8138 -16.4809  13.3101 O.co2          1 <1>               -1.0000
      2 C2           0.9190 -15.6553  13.1943 C.2            1 <1>                0.0000
      3 O3           0.1383 -15.4660  14.1165 O.co2          1 <1>                0.0000
      4 C4           0.7850 -14.8835  11.9447 C.ar           1 <1>                0.0000
      5 C5           1.6587 -15.1171  10.8793 C.ar           1 <1>                0.0000
      6 C6           1.5310 -14.3942   9.7115 C.ar           1 <1>                0.0000
      7 C7           0.5397 -13.4368   9.5897 C.ar           1 <1>                0.0000
      8 Cl8          0.3867 -12.5326   8.1156 Cl             1 <1>                0.0000
      9 C9          -0.3357 -13.1964  10.6448 C.ar           1 <1>                0.0000
     10 C10         -0.2193 -13.9204  11.8198 C.ar           1 <1>                0.0000
     11 N11         -1.3353 -12.2276  10.5168 N.pl3          1 <1>                0.0000
     12 C12         -2.7845 -12.4731  10.4684 C.3            1 <1>                0.0000
     13 C13         -3.4801 -11.3762   9.6397 C.3            1 <1>                0.0000
     14 C14         -2.8431 -10.0499  10.1461 C.3            1 <1>                0.0000
     15 S15         -1.1039 -10.5781  10.3978 S.o2           1 <1>                0.0000
     16 O16         -0.6216 -10.1719  11.6713 O.2            1 <1>                0.0000
     17 O17         -0.3359 -10.4014   9.2154 O.2            1 <1>                0.0000
     18 H18          2.4341 -15.8633  10.9705 H              1 <1>                0.0000
     19 H19          2.2075 -14.5760   8.8894 H              1 <1>                0.0000
     20 H20         -0.8978 -13.7357  12.6396 H              1 <1>                0.0000
     21 H21         -2.9713 -13.4446  10.0109 H              1 <1>                0.0000
     22 H22         -3.1856 -12.4691  11.4819 H              1 <1>                0.0000
     23 H23         -3.2778 -11.5150   8.5777 H              1 <1>                0.0000
     24 H24         -4.5537 -11.3796   9.8277 H              1 <1>                0.0000
     25 H25         -2.9137  -9.2663   9.3919 H              1 <1>                0.0000
     26 H26         -3.2938  -9.7307  11.0859 H              1 <1>                0.0000
@<TRIPOS>BOND
    1    1    2 ar    
    2    2    3 ar    
    3    2    4 1     
    4    4    5 ar    
    5    4   10 ar    
    6    5    6 ar    
    7    5   18 1     
    8    6    7 ar    
    9    6   19 1     
   10    7    8 1     
   11    7    9 ar    
   12    9   10 ar    
   13    9   11 1     
   14   10   20 1     
   15   11   12 1     
   16   11   15 1     
   17   12   13 1     
   18   12   21 1     
   19   12   22 1     
   20   13   14 1     
   21   13   23 1     
   22   13   24 1     
   23   14   15 1     
   24   14   25 1     
   25   14   26 1     
   26   15   16 2     
   27   15   17 2     
@<TRIPOS>SUBSTRUCTURE
      1 ****           1
@<TRIPOS>COMMENT
> <Gold.Version>
2022.2.0

> <Gold.Id.Protein>
3pbl|protein|mol2

> <Gold.Protein.RotatedTorsions>
[ 1303 1298 1297 1294 ] final -143.03 input  179.99 | X-H torsion
[ 2461 2456 2455 2452 ] final -126.18 input   30.03 | X-H torsion
[ 2515 2510 2509 2506 ] final  -61.55 input  -89.99 | X-H torsion
[ 3721 3712 3711 3710 ] final   82.81 input -179.91 | X-H torsion
[ 3841 3832 3831 3830 ] final  102.56 input -179.91 | X-H torsion
[ 3767 3762 3761 3758 ] final  154.34 input  -89.99 | X-H torsion
[ 2472 2467 2466 2463 ] final -178.70 input  -89.97 | X-H torsion

> <Gold.Protein.ActiveResidues>
 VAL82   VAL86   LEU89   PHE106  VAL107  ASP110  VAL111  MET112  CYS114  THR115 
 CYS181  SER182  ILE183  PHE188  VAL189  ILE190  SER192  SER193  SER196  TRP342 
 PHE345  PHE346  HIS349  VAL350  TYR365  THR369  GLY372  TYR373 

> <Gold.Protein.RotatedAtoms>
    4.5304   -8.5260    4.3200 H   0  0  0  0  0  0  0  0  0  0  0  0  # atno 1303 bound_to 1298
    0.6466   -9.2117    8.1152 H   0  0  0  0  0  0  0  0  0  0  0  0  # atno 2461 bound_to 2456
   -5.3344   -5.3921    9.0362 H   0  0  0  0  0  0  0  0  0  0  0  0  # atno 2472 bound_to 2467
    2.8258   -8.5244    4.3904 H   0  0  0  0  0  0  0  0  0  0  0  0  # atno 2515 bound_to 2510
   -2.7325  -17.6969   13.1538 H   0  0  0  0  0  0  0  0  0  0  0  0  # atno 3721 bound_to 3712
   -3.9317  -22.8469   11.3424 H   0  0  0  0  0  0  0  0  0  0  0  0  # atno 3767 bound_to 3762
    2.9633  -20.8586    9.1320 H   0  0  0  0  0  0  0  0  0  0  0  0  # atno 3841 bound_to 3832
    4.5020  -10.0548    4.8928 LP  0  0  0  0  0  0  0  0  0  0  0  0  # atno 4297 bound_to 1298
    3.3297   -9.5409    3.8788 LP  0  0  0  0  0  0  0  0  0  0  0  0  # atno 4298 bound_to 1298
    2.1447   -8.5719    7.9990 LP  0  0  0  0  0  0  0  0  0  0  0  0  # atno 4299 bound_to 2456
    0.9463   -8.0248    7.0341 LP  0  0  0  0  0  0  0  0  0  0  0  0  # atno 4300 bound_to 2456
    2.3131   -9.0208    5.8589 LP  0  0  0  0  0  0  0  0  0  0  0  0  # atno 4301 bound_to 2510
    2.1577   -7.4538    5.4264 LP  0  0  0  0  0  0  0  0  0  0  0  0  # atno 4302 bound_to 2510
   -2.8103  -17.7390   14.7569 LP  0  0  0  0  0  0  0  0  0  0  0  0  # atno 4306 bound_to 3712
   -3.5626  -16.5559   13.9198 LP  0  0  0  0  0  0  0  0  0  0  0  0  # atno 4307 bound_to 3712
    1.4426  -20.3902    9.3425 LP  0  0  0  0  0  0  0  0  0  0  0  0  # atno 4314 bound_to 3832
    2.3637  -19.7203    8.1723 LP  0  0  0  0  0  0  0  0  0  0  0  0  # atno 4315 bound_to 3832
   -4.9252  -23.0986   10.0710 LP  0  0  0  0  0  0  0  0  0  0  0  0  # atno 4318 bound_to 3762
   -5.2701  -21.9296   11.1578 LP  0  0  0  0  0  0  0  0  0  0  0  0  # atno 4319 bound_to 3762
   -4.6645   -4.8218    7.6606 LP  0  0  0  0  0  0  0  0  0  0  0  0  # atno 4320 bound_to 2467
   -3.7181   -5.1797    8.9424 LP  0  0  0  0  0  0  0  0  0  0  0  0  # atno 4321 bound_to 2467

> <Gold.Score>
     Score     S(PLP)   S(hbond)     S(cho)   S(metal)  DE(clash)   DE(tors)     intcor
     48.80     -43.63       1.98       0.00       0.00       0.00       1.28       1.80

> <Gold.PLP.Fitness>
48.8047

> <Gold.PLP.PLP>
-43.6339

> <Gold.PLP.part.hbond>
-2.0000

> <Gold.PLP.part.metal>
0.0000

> <Gold.PLP.part.buried>
-3.5779

> <Gold.PLP.part.nonpolar>
-41.0493

> <Gold.PLP.part.repulsive>
0.1909

> <Gold.PLP.ligand.clash>
0.0000

> <Gold.PLP.ligand.torsion>
1.2781

> <Gold.PLP.Chemscore.Hbond>
1.9750

> <Gold.PLP.Chemscore.CHOScore>
0.0000

> <Gold.PLP.Chemscore.Metal>
0.0000

> <Gold.Chemscore.Hbonds>
donor molecule, donor type, donor heavy atom, donor atom, acceptor molecule, acceptor atom, score
      P1  H  2456  2461       L1    17  1.00
      P1  H  2305  2313       L1     3  0.98

> <Gold.PLP.Chemscore.Internal.Correction>
1.8021

