#       Name:                EN300-44899_i001
#       Creating user name   fsindt
#       Creation time:       Thu Mar  2 04:57:39 2023


#       File generated by GOLD software.
#

@<TRIPOS>MOLECULE
EN300-44899_i001|acide_1|mol2|12435|dock3
    26    27     1
SMALL
USER_CHARGES


@<TRIPOS>ATOM
      1 O1          -0.1155 -15.4606  12.8315 O.co2          1 <1>               -1.0000
      2 C2           0.0912 -16.4461  13.5255 C.2            1 <1>                0.0000
      3 O3           0.4095 -16.3120  14.6988 O.co2          1 <1>                0.0000
      4 C4          -0.0493 -17.7964  12.9494 C.ar           1 <1>                0.0000
      5 C5          -0.3314 -17.9527  11.5897 C.ar           1 <1>                0.0000
      6 C6          -0.4619 -19.2167  11.0532 C.ar           1 <1>                0.0000
      7 C7          -0.3144 -20.3332  11.8569 C.ar           1 <1>                0.0000
      8 Cl8         -0.4799 -21.9199  11.1722 Cl             1 <1>                0.0000
      9 C9          -0.0333 -20.1887  13.2124 C.ar           1 <1>                0.0000
     10 C10          0.1048 -18.9239  13.7599 C.ar           1 <1>                0.0000
     11 N11          0.1143 -21.3199  14.0201 N.pl3          1 <1>                0.0000
     12 C12          1.1524 -22.3535  13.8896 C.3            1 <1>                0.0000
     13 C13          0.6200 -23.7062  14.3999 C.3            1 <1>                0.0000
     14 C14         -0.0917 -23.3585  15.7392 C.3            1 <1>                0.0000
     15 S15         -0.8513 -21.7428  15.3153 S.o2           1 <1>                0.0000
     16 O16         -0.5859 -20.7705  16.3170 O.2            1 <1>                0.0000
     17 O17         -2.1493 -21.9131  14.7628 O.2            1 <1>                0.0000
     18 H18         -0.4477 -17.0836  10.9590 H              1 <1>                0.0000
     19 H19         -0.6803 -19.3353  10.0021 H              1 <1>                0.0000
     20 H20          0.3233 -18.8095  14.8114 H              1 <1>                0.0000
     21 H21          1.4370 -22.4494  12.8417 H              1 <1>                0.0000
     22 H22          2.0253 -22.0647  14.4749 H              1 <1>                0.0000
     23 H23         -0.0902 -24.1289  13.6893 H              1 <1>                0.0000
     24 H24          1.4436 -24.3986  14.5744 H              1 <1>                0.0000
     25 H25         -0.8512 -24.1005  15.9855 H              1 <1>                0.0000
     26 H26          0.6279 -23.2504  16.5507 H              1 <1>                0.0000
@<TRIPOS>BOND
    1    1    2 ar    
    2    2    3 ar    
    3    2    4 1     
    4    4    5 ar    
    5    4   10 ar    
    6    5    6 ar    
    7    5   18 1     
    8    6    7 ar    
    9    6   19 1     
   10    7    8 1     
   11    7    9 ar    
   12    9   10 ar    
   13    9   11 1     
   14   10   20 1     
   15   11   12 1     
   16   11   15 1     
   17   12   13 1     
   18   12   21 1     
   19   12   22 1     
   20   13   14 1     
   21   13   23 1     
   22   13   24 1     
   23   14   15 1     
   24   14   25 1     
   25   14   26 1     
   26   15   16 2     
   27   15   17 2     
@<TRIPOS>SUBSTRUCTURE
      1 ****           1
@<TRIPOS>COMMENT
> <Gold.Version>
2022.2.0

> <Gold.Id.Protein>
3pbl|protein|mol2

> <Gold.Protein.RotatedTorsions>
[ 1303 1298 1297 1294 ] final  178.21 input  179.99 | X-H torsion
[ 2461 2456 2455 2452 ] final   57.77 input   30.03 | X-H torsion
[ 2515 2510 2509 2506 ] final   98.66 input  -89.99 | X-H torsion
[ 3721 3712 3711 3710 ] final  100.49 input -179.91 | X-H torsion
[ 3841 3832 3831 3830 ] final  161.90 input -179.91 | X-H torsion
[ 3767 3762 3761 3758 ] final  144.69 input  -89.99 | X-H torsion
[ 2472 2467 2466 2463 ] final  -62.88 input  -89.97 | X-H torsion

> <Gold.Protein.ActiveResidues>
 VAL82   VAL86   LEU89   PHE106  VAL107  ASP110  VAL111  MET112  CYS114  THR115 
 CYS181  SER182  ILE183  PHE188  VAL189  ILE190  SER192  SER193  SER196  TRP342 
 PHE345  PHE346  HIS349  VAL350  TYR365  THR369  GLY372  TYR373 

> <Gold.Protein.RotatedAtoms>
    4.8637   -8.8983    4.6961 H   0  0  0  0  0  0  0  0  0  0  0  0  # atno 1303 bound_to 1298
    1.8915   -8.0169    7.3562 H   0  0  0  0  0  0  0  0  0  0  0  0  # atno 2461 bound_to 2456
   -3.7485   -5.2042    8.9990 H   0  0  0  0  0  0  0  0  0  0  0  0  # atno 2472 bound_to 2467
    2.0318   -7.8468    5.9261 H   0  0  0  0  0  0  0  0  0  0  0  0  # atno 2515 bound_to 2510
   -2.8619  -17.4867   13.0539 H   0  0  0  0  0  0  0  0  0  0  0  0  # atno 3721 bound_to 3712
   -3.9093  -22.9569   11.2303 H   0  0  0  0  0  0  0  0  0  0  0  0  # atno 3767 bound_to 3762
    3.0814  -20.2638    8.5263 H   0  0  0  0  0  0  0  0  0  0  0  0  # atno 3841 bound_to 3832
    3.9839  -10.2716    4.6170 LP  0  0  0  0  0  0  0  0  0  0  0  0  # atno 4297 bound_to 1298
    3.5142   -8.9515    3.7783 LP  0  0  0  0  0  0  0  0  0  0  0  0  # atno 4298 bound_to 1298
    0.3611   -8.5863    7.3908 LP  0  0  0  0  0  0  0  0  0  0  0  0  # atno 4299 bound_to 2456
    1.4853   -9.2047    8.4010 LP  0  0  0  0  0  0  0  0  0  0  0  0  # atno 4300 bound_to 2456
    2.6748   -7.8952    4.4261 LP  0  0  0  0  0  0  0  0  0  0  0  0  # atno 4301 bound_to 2510
    2.5903   -9.2574    5.3227 LP  0  0  0  0  0  0  0  0  0  0  0  0  # atno 4302 bound_to 2510
   -2.7042  -17.9512   14.5827 LP  0  0  0  0  0  0  0  0  0  0  0  0  # atno 4306 bound_to 3712
   -3.5194  -16.5864   14.2093 LP  0  0  0  0  0  0  0  0  0  0  0  0  # atno 4307 bound_to 3712
    2.1000  -21.0485    9.5248 LP  0  0  0  0  0  0  0  0  0  0  0  0  # atno 4314 bound_to 3832
    1.5699  -19.7491    8.6897 LP  0  0  0  0  0  0  0  0  0  0  0  0  # atno 4315 bound_to 3832
   -5.0517  -23.0031   10.0643 LP  0  0  0  0  0  0  0  0  0  0  0  0  # atno 4318 bound_to 3762
   -5.1660  -21.9151   11.2766 LP  0  0  0  0  0  0  0  0  0  0  0  0  # atno 4319 bound_to 3762
   -5.3723   -5.3756    8.9812 LP  0  0  0  0  0  0  0  0  0  0  0  0  # atno 4320 bound_to 2467
   -4.5960   -4.8137    7.6590 LP  0  0  0  0  0  0  0  0  0  0  0  0  # atno 4321 bound_to 2467

> <Gold.Score>
     Score     S(PLP)   S(hbond)     S(cho)   S(metal)  DE(clash)   DE(tors)     intcor
     37.84     -35.44       1.00       0.00       0.00       0.00       1.20       1.80

> <Gold.PLP.Fitness>
37.8384

> <Gold.PLP.PLP>
-35.4438

> <Gold.PLP.part.hbond>
-1.0000

> <Gold.PLP.part.metal>
0.0000

> <Gold.PLP.part.buried>
-5.4673

> <Gold.PLP.part.nonpolar>
-29.8174

> <Gold.PLP.part.repulsive>
0.1276

> <Gold.PLP.ligand.clash>
0.0000

> <Gold.PLP.ligand.torsion>
1.2038

> <Gold.PLP.Chemscore.Hbond>
1.0000

> <Gold.PLP.Chemscore.CHOScore>
0.0000

> <Gold.PLP.Chemscore.Metal>
0.0000

> <Gold.Chemscore.Hbonds>
donor molecule, donor type, donor heavy atom, donor atom, acceptor molecule, acceptor atom, score
      P1  H  2305  2313       L1     3  1.00

> <Gold.PLP.Chemscore.Internal.Correction>
1.8021

