#       Name:                EN300-44899_i001
#       Creating user name   fsindt
#       Creation time:       Thu Mar  2 04:57:41 2023


#       File generated by GOLD software.
#

@<TRIPOS>MOLECULE
EN300-44899_i001|acide_1|mol2|12435|dock11
    26    27     1
SMALL
USER_CHARGES


@<TRIPOS>ATOM
      1 O1           0.5641 -11.6812   9.5192 O.co2          1 <1>               -1.0000
      2 C2           0.5581 -12.5729   8.6822 C.2            1 <1>                0.0000
      3 O3           0.7359 -12.3052   7.5021 O.co2          1 <1>                0.0000
      4 C4           0.3427 -13.9718   9.0966 C.ar           1 <1>                0.0000
      5 C5          -0.2013 -14.8933   8.1980 C.ar           1 <1>                0.0000
      6 C6          -0.4015 -16.2012   8.5879 C.ar           1 <1>                0.0000
      7 C7          -0.0653 -16.6058   9.8675 C.ar           1 <1>                0.0000
      8 Cl8         -0.3205 -18.2543  10.3487 Cl             1 <1>                0.0000
      9 C9           0.4772 -15.6959  10.7703 C.ar           1 <1>                0.0000
     10 C10          0.6870 -14.3815  10.3871 C.ar           1 <1>                0.0000
     11 N11          0.8147 -16.1097  12.0622 N.pl3          1 <1>                0.0000
     12 C12          2.1731 -16.2143  12.6159 C.3            1 <1>                0.0000
     13 C13          2.2226 -17.3144  13.6934 C.3            1 <1>                0.0000
     14 C14          0.9527 -17.0638  14.5570 C.3            1 <1>                0.0000
     15 S15         -0.2508 -16.5695  13.2631 S.o2           1 <1>                0.0000
     16 O16         -0.9419 -15.3829  13.6289 O.2            1 <1>                0.0000
     17 O17         -0.9315 -17.6992  12.7344 O.2            1 <1>                0.0000
     18 H18         -0.4653 -14.5814   7.1982 H              1 <1>                0.0000
     19 H19         -0.8223 -16.9119   7.8919 H              1 <1>                0.0000
     20 H20          1.1082 -13.6740  11.0860 H              1 <1>                0.0000
     21 H21          2.8713 -16.4606  11.8159 H              1 <1>                0.0000
     22 H22          2.4564 -15.2603  13.0604 H              1 <1>                0.0000
     23 H23          2.1814 -18.3013  13.2327 H              1 <1>                0.0000
     24 H24          3.1223 -17.2133  14.3003 H              1 <1>                0.0000
     25 H25          0.6360 -17.9746  15.0650 H              1 <1>                0.0000
     26 H26          1.1144 -16.2544  15.2690 H              1 <1>                0.0000
@<TRIPOS>BOND
    1    1    2 ar    
    2    2    3 ar    
    3    2    4 1     
    4    4    5 ar    
    5    4   10 ar    
    6    5    6 ar    
    7    5   18 1     
    8    6    7 ar    
    9    6   19 1     
   10    7    8 1     
   11    7    9 ar    
   12    9   10 ar    
   13    9   11 1     
   14   10   20 1     
   15   11   12 1     
   16   11   15 1     
   17   12   13 1     
   18   12   21 1     
   19   12   22 1     
   20   13   14 1     
   21   13   23 1     
   22   13   24 1     
   23   14   15 1     
   24   14   25 1     
   25   14   26 1     
   26   15   16 2     
   27   15   17 2     
@<TRIPOS>SUBSTRUCTURE
      1 ****           1
@<TRIPOS>COMMENT
> <Gold.Version>
2022.2.0

> <Gold.Id.Protein>
3pbl|protein|mol2

> <Gold.Protein.RotatedTorsions>
[ 1303 1298 1297 1294 ] final  -72.06 input  179.99 | X-H torsion
[ 2461 2456 2455 2452 ] final  -47.89 input   30.03 | X-H torsion
[ 2515 2510 2509 2506 ] final  -16.57 input  -89.99 | X-H torsion
[ 3721 3712 3711 3710 ] final   61.06 input -179.91 | X-H torsion
[ 3841 3832 3831 3830 ] final  151.57 input -179.91 | X-H torsion
[ 3767 3762 3761 3758 ] final  -91.22 input  -89.99 | X-H torsion
[ 2472 2467 2466 2463 ] final -159.84 input  -89.97 | X-H torsion

> <Gold.Protein.ActiveResidues>
 VAL82   VAL86   LEU89   PHE106  VAL107  ASP110  VAL111  MET112  CYS114  THR115 
 CYS181  SER182  ILE183  PHE188  VAL189  ILE190  SER192  SER193  SER196  TRP342 
 PHE345  PHE346  HIS349  VAL350  TYR365  THR369  GLY372  TYR373 

> <Gold.Protein.RotatedAtoms>
    3.6145   -8.8168    3.7964 H   0  0  0  0  0  0  0  0  0  0  0  0  # atno 1303 bound_to 1298
    0.4465   -8.4170    7.2515 H   0  0  0  0  0  0  0  0  0  0  0  0  # atno 2461 bound_to 2456
   -5.1169   -5.4449    9.2491 H   0  0  0  0  0  0  0  0  0  0  0  0  # atno 2472 bound_to 2467
    2.6473   -7.8292    4.4582 H   0  0  0  0  0  0  0  0  0  0  0  0  # atno 2515 bound_to 2510
   -2.5969  -17.8999   13.3710 H   0  0  0  0  0  0  0  0  0  0  0  0  # atno 3721 bound_to 3712
   -5.2117  -21.9182   11.2272 H   0  0  0  0  0  0  0  0  0  0  0  0  # atno 3767 bound_to 3762
    3.1199  -20.3874    8.6131 H   0  0  0  0  0  0  0  0  0  0  0  0  # atno 3841 bound_to 3832
    4.9007   -9.0420    4.7769 LP  0  0  0  0  0  0  0  0  0  0  0  0  # atno 4297 bound_to 1298
    3.8472  -10.2627    4.5185 LP  0  0  0  0  0  0  0  0  0  0  0  0  # atno 4298 bound_to 1298
    1.2591   -9.2674    8.3846 LP  0  0  0  0  0  0  0  0  0  0  0  0  # atno 4299 bound_to 2456
    2.0319   -8.1238    7.5119 LP  0  0  0  0  0  0  0  0  0  0  0  0  # atno 4300 bound_to 2456
    2.6206   -9.2565    5.2506 LP  0  0  0  0  0  0  0  0  0  0  0  0  # atno 4301 bound_to 2510
    2.0288   -7.9136    5.9669 LP  0  0  0  0  0  0  0  0  0  0  0  0  # atno 4302 bound_to 2510
   -2.9753  -17.4349   14.8604 LP  0  0  0  0  0  0  0  0  0  0  0  0  # atno 4306 bound_to 3712
   -3.5542  -16.6257   13.5655 LP  0  0  0  0  0  0  0  0  0  0  0  0  # atno 4307 bound_to 3712
    1.9492  -20.9673    9.5455 LP  0  0  0  0  0  0  0  0  0  0  0  0  # atno 4314 bound_to 3832
    1.6762  -19.6875    8.5687 LP  0  0  0  0  0  0  0  0  0  0  0  0  # atno 4315 bound_to 3832
   -3.9166  -22.9116   11.2797 LP  0  0  0  0  0  0  0  0  0  0  0  0  # atno 4318 bound_to 3762
   -4.9992  -23.0450   10.0644 LP  0  0  0  0  0  0  0  0  0  0  0  0  # atno 4319 bound_to 3762
   -4.9612   -4.8779    7.7257 LP  0  0  0  0  0  0  0  0  0  0  0  0  # atno 4320 bound_to 2467
   -3.6389   -5.0708    8.6644 LP  0  0  0  0  0  0  0  0  0  0  0  0  # atno 4321 bound_to 2467

> <Gold.Score>
     Score     S(PLP)   S(hbond)     S(cho)   S(metal)  DE(clash)   DE(tors)     intcor
     36.48     -34.98       0.96       0.00       0.00       0.00       1.59       1.80

> <Gold.PLP.Fitness>
36.4850

> <Gold.PLP.PLP>
-34.9795

> <Gold.PLP.part.hbond>
-1.7995

> <Gold.PLP.part.metal>
0.0000

> <Gold.PLP.part.buried>
4.7019

> <Gold.PLP.part.nonpolar>
-38.0304

> <Gold.PLP.part.repulsive>
0.1861

> <Gold.PLP.ligand.clash>
0.0000

> <Gold.PLP.ligand.torsion>
1.5883

> <Gold.PLP.Chemscore.Hbond>
0.9600

> <Gold.PLP.Chemscore.CHOScore>
0.0000

> <Gold.PLP.Chemscore.Metal>
0.0000

> <Gold.Chemscore.Hbonds>
donor molecule, donor type, donor heavy atom, donor atom, acceptor molecule, acceptor atom, score
      P1  H  3712  3721       L1    17  0.96

> <Gold.PLP.Chemscore.Internal.Correction>
1.8021

