#       Name:                EN300-44899_i001
#       Creating user name   fsindt
#       Creation time:       Thu Mar  2 04:57:38 2023


#       File generated by GOLD software.
#

@<TRIPOS>MOLECULE
EN300-44899_i001|acide_1|mol2|12435|dock1
    26    27     1
SMALL
USER_CHARGES


@<TRIPOS>ATOM
      1 O1           0.1874 -15.2877  14.3070 O.co2          1 <1>               -1.0000
      2 C2          -0.2355 -15.8221  13.2915 C.2            1 <1>                0.0000
      3 O3          -0.7191 -16.9441  13.3469 O.co2          1 <1>                0.0000
      4 C4          -0.1678 -15.1112  12.0011 C.ar           1 <1>                0.0000
      5 C5           0.5173 -15.6784  10.9233 C.ar           1 <1>                0.0000
      6 C6           0.5788 -15.0118   9.7173 C.ar           1 <1>                0.0000
      7 C7          -0.0362 -13.7813   9.5695 C.ar           1 <1>                0.0000
      8 Cl8          0.0463 -12.9502   8.0475 Cl             1 <1>                0.0000
      9 C9          -0.7212 -13.2075  10.6366 C.ar           1 <1>                0.0000
     10 C10         -0.7933 -13.8711  11.8503 C.ar           1 <1>                0.0000
     11 N11         -1.3404 -11.9638  10.4822 N.pl3          1 <1>                0.0000
     12 C12         -2.7878 -11.7038  10.4996 C.3            1 <1>                0.0000
     13 C13         -3.1160 -10.4767   9.6276 C.3            1 <1>                0.0000
     14 C14         -2.0423  -9.4235  10.0266 C.3            1 <1>                0.0000
     15 S15         -0.5726 -10.4990  10.2510 S.o2           1 <1>                0.0000
     16 O16          0.0866 -10.2207  11.4787 O.2            1 <1>                0.0000
     17 O17          0.1449 -10.6510   9.0339 O.2            1 <1>                0.0000
     18 H18          0.9990 -16.6387  11.0347 H              1 <1>                0.0000
     19 H19          1.1091 -15.4517   8.8856 H              1 <1>                0.0000
     20 H20         -1.3246 -13.4279  12.6795 H              1 <1>                0.0000
     21 H21         -3.3161 -12.5746  10.1113 H              1 <1>                0.0000
     22 H22         -3.1086 -11.5151  11.5241 H              1 <1>                0.0000
     23 H23         -3.0301 -10.7267   8.5702 H              1 <1>                0.0000
     24 H24         -4.1159 -10.1058   9.8525 H              1 <1>                0.0000
     25 H25         -1.8848  -8.6996   9.2272 H              1 <1>                0.0000
     26 H26         -2.3072  -8.9254  10.9593 H              1 <1>                0.0000
@<TRIPOS>BOND
    1    1    2 ar    
    2    2    3 ar    
    3    2    4 1     
    4    4    5 ar    
    5    4   10 ar    
    6    5    6 ar    
    7    5   18 1     
    8    6    7 ar    
    9    6   19 1     
   10    7    8 1     
   11    7    9 ar    
   12    9   10 ar    
   13    9   11 1     
   14   10   20 1     
   15   11   12 1     
   16   11   15 1     
   17   12   13 1     
   18   12   21 1     
   19   12   22 1     
   20   13   14 1     
   21   13   23 1     
   22   13   24 1     
   23   14   15 1     
   24   14   25 1     
   25   14   26 1     
   26   15   16 2     
   27   15   17 2     
@<TRIPOS>SUBSTRUCTURE
      1 ****           1
@<TRIPOS>COMMENT
> <Gold.Version>
2022.2.0

> <Gold.Id.Protein>
3pbl|protein|mol2

> <Gold.Protein.RotatedTorsions>
[ 1303 1298 1297 1294 ] final -175.86 input  179.99 | X-H torsion
[ 2461 2456 2455 2452 ] final -147.34 input   30.03 | X-H torsion
[ 2515 2510 2509 2506 ] final    5.61 input  -89.99 | X-H torsion
[ 3721 3712 3711 3710 ] final   49.51 input -179.91 | X-H torsion
[ 3841 3832 3831 3830 ] final  -51.79 input -179.91 | X-H torsion
[ 3767 3762 3761 3758 ] final   61.91 input  -89.99 | X-H torsion
[ 2472 2467 2466 2463 ] final   90.80 input  -89.97 | X-H torsion

> <Gold.Protein.ActiveResidues>
 VAL82   VAL86   LEU89   PHE106  VAL107  ASP110  VAL111  MET112  CYS114  THR115 
 CYS181  SER182  ILE183  PHE188  VAL189  ILE190  SER192  SER193  SER196  TRP342 
 PHE345  PHE346  HIS349  VAL350  TYR365  THR369  GLY372  TYR373 

> <Gold.Protein.RotatedAtoms>
    4.8318   -8.8222    4.6444 H   0  0  0  0  0  0  0  0  0  0  0  0  # atno 1303 bound_to 1298
    0.9369   -9.2847    8.2895 H   0  0  0  0  0  0  0  0  0  0  0  0  # atno 2461 bound_to 2456
   -5.1119   -4.9228    7.8019 H   0  0  0  0  0  0  0  0  0  0  0  0  # atno 2472 bound_to 2467
    2.5024   -7.5739    4.6711 H   0  0  0  0  0  0  0  0  0  0  0  0  # atno 2515 bound_to 2510
   -2.5416  -17.9734   13.5193 H   0  0  0  0  0  0  0  0  0  0  0  0  # atno 3721 bound_to 3712
   -4.5429  -23.2897   10.2091 H   0  0  0  0  0  0  0  0  0  0  0  0  # atno 3767 bound_to 3762
    1.5806  -19.8901    9.1210 H   0  0  0  0  0  0  0  0  0  0  0  0  # atno 3841 bound_to 3832
    4.0651  -10.2637    4.6703 LP  0  0  0  0  0  0  0  0  0  0  0  0  # atno 4297 bound_to 1298
    3.4650   -9.0357    3.7768 LP  0  0  0  0  0  0  0  0  0  0  0  0  # atno 4298 bound_to 1298
    2.1465   -8.3266    7.7545 LP  0  0  0  0  0  0  0  0  0  0  0  0  # atno 4299 bound_to 2456
    0.6542   -8.1971    7.1043 LP  0  0  0  0  0  0  0  0  0  0  0  0  # atno 4300 bound_to 2456
    2.7414   -9.1697    4.9197 LP  0  0  0  0  0  0  0  0  0  0  0  0  # atno 4301 bound_to 2510
    2.0529   -8.2559    6.0848 LP  0  0  0  0  0  0  0  0  0  0  0  0  # atno 4302 bound_to 2510
   -3.0712  -17.2676   14.8606 LP  0  0  0  0  0  0  0  0  0  0  0  0  # atno 4306 bound_to 3712
   -3.5221  -16.7081   13.3942 LP  0  0  0  0  0  0  0  0  0  0  0  0  # atno 4307 bound_to 3712
    2.8654  -20.0716    8.1763 LP  0  0  0  0  0  0  0  0  0  0  0  0  # atno 4314 bound_to 3832
    2.5381  -21.1575    9.3512 LP  0  0  0  0  0  0  0  0  0  0  0  0  # atno 4315 bound_to 3832
   -5.4718  -22.0757   10.7838 LP  0  0  0  0  0  0  0  0  0  0  0  0  # atno 4318 bound_to 3762
   -4.1126  -22.5099   11.5779 LP  0  0  0  0  0  0  0  0  0  0  0  0  # atno 4319 bound_to 3762
   -3.6383   -5.0114    8.4999 LP  0  0  0  0  0  0  0  0  0  0  0  0  # atno 4320 bound_to 2467
   -4.9668   -5.4593    9.3373 LP  0  0  0  0  0  0  0  0  0  0  0  0  # atno 4321 bound_to 2467

> <Gold.Score>
     Score     S(PLP)   S(hbond)     S(cho)   S(metal)  DE(clash)   DE(tors)     intcor
     53.51     -49.17       2.42       0.00       0.00       0.00       2.36       1.81

> <Gold.PLP.Fitness>
53.5109

> <Gold.PLP.PLP>
-49.1750

> <Gold.PLP.part.hbond>
-3.0000

> <Gold.PLP.part.metal>
0.0000

> <Gold.PLP.part.buried>
-0.0613

> <Gold.PLP.part.nonpolar>
-48.4410

> <Gold.PLP.part.repulsive>
0.1637

> <Gold.PLP.ligand.clash>
0.0000

> <Gold.PLP.ligand.torsion>
2.3602

> <Gold.PLP.Chemscore.Hbond>
2.4160

> <Gold.PLP.Chemscore.CHOScore>
0.0000

> <Gold.PLP.Chemscore.Metal>
0.0000

> <Gold.Chemscore.Hbonds>
donor molecule, donor type, donor heavy atom, donor atom, acceptor molecule, acceptor atom, score
      P1  H  2456  2461       L1    17  1.00
      P1  H  2305  2313       L1     1  1.00
      P1  H  3712  3721       L1     3  0.42

> <Gold.PLP.Chemscore.Internal.Correction>
1.8083

