#       Name:                EN300-44899_i001
#       Creating user name   fsindt
#       Creation time:       Thu Mar  2 04:57:39 2023


#       File generated by GOLD software.
#

@<TRIPOS>MOLECULE
EN300-44899_i001|acide_1|mol2|12435|dock2
    26    27     1
SMALL
USER_CHARGES


@<TRIPOS>ATOM
      1 O1           1.0538 -11.1888   8.5680 O.co2          1 <1>               -1.0000
      2 C2           0.9369 -12.1261   7.7913 C.2            1 <1>                0.0000
      3 O3           1.1143 -11.9536   6.5935 O.co2          1 <1>                0.0000
      4 C4           0.5877 -13.4658   8.2995 C.ar           1 <1>                0.0000
      5 C5           0.0012 -14.4072   7.4495 C.ar           1 <1>                0.0000
      6 C6          -0.3240 -15.6597   7.9272 C.ar           1 <1>                0.0000
      7 C7          -0.0716 -15.9890   9.2470 C.ar           1 <1>                0.0000
      8 Cl8         -0.4840 -17.5682   9.8387 Cl             1 <1>                0.0000
      9 C9           0.5123 -15.0587  10.1020 C.ar           1 <1>                0.0000
     10 C10          0.8475 -13.8001   9.6309 C.ar           1 <1>                0.0000
     11 N11          0.7648 -15.3964  11.4348 N.pl3          1 <1>                0.0000
     12 C12          2.0878 -15.5513  12.0581 C.3            1 <1>                0.0000
     13 C13          2.0134 -16.5681  13.2131 C.3            1 <1>                0.0000
     14 C14          0.7294 -16.1675  13.9956 C.3            1 <1>                0.0000
     15 S15         -0.3803 -15.6910  12.6141 S.o2           1 <1>                0.0000
     16 O16         -0.9997 -14.4360  12.8605 O.2            1 <1>                0.0000
     17 O17         -1.1170 -16.8083  12.1365 O.2            1 <1>                0.0000
     18 H18         -0.1978 -14.1539   6.4186 H              1 <1>                0.0000
     19 H19         -0.7775 -16.3858   7.2687 H              1 <1>                0.0000
     20 H20          1.3009 -13.0769  10.2926 H              1 <1>                0.0000
     21 H21          2.7998 -15.9039  11.3117 H              1 <1>                0.0000
     22 H22          2.4196 -14.5880  12.4455 H              1 <1>                0.0000
     23 H23          1.9214 -17.5818  12.8232 H              1 <1>                0.0000
     24 H24          2.8918 -16.4832  13.8529 H              1 <1>                0.0000
     25 H25          0.3275 -17.0139  14.5523 H              1 <1>                0.0000
     26 H26          0.9185 -15.3198  14.6542 H              1 <1>                0.0000
@<TRIPOS>BOND
    1    1    2 ar    
    2    2    3 ar    
    3    2    4 1     
    4    4    5 ar    
    5    4   10 ar    
    6    5    6 ar    
    7    5   18 1     
    8    6    7 ar    
    9    6   19 1     
   10    7    8 1     
   11    7    9 ar    
   12    9   10 ar    
   13    9   11 1     
   14   10   20 1     
   15   11   12 1     
   16   11   15 1     
   17   12   13 1     
   18   12   21 1     
   19   12   22 1     
   20   13   14 1     
   21   13   23 1     
   22   13   24 1     
   23   14   15 1     
   24   14   25 1     
   25   14   26 1     
   26   15   16 2     
   27   15   17 2     
@<TRIPOS>SUBSTRUCTURE
      1 ****           1
@<TRIPOS>COMMENT
> <Gold.Version>
2022.2.0

> <Gold.Id.Protein>
3pbl|protein|mol2

> <Gold.Protein.RotatedTorsions>
[ 1303 1298 1297 1294 ] final  103.99 input  179.99 | X-H torsion
[ 2461 2456 2455 2452 ] final -147.72 input   30.03 | X-H torsion
[ 2515 2510 2509 2506 ] final   20.49 input  -89.99 | X-H torsion
[ 3721 3712 3711 3710 ] final   95.88 input -179.91 | X-H torsion
[ 3841 3832 3831 3830 ] final  161.53 input -179.91 | X-H torsion
[ 3767 3762 3761 3758 ] final  124.60 input  -89.99 | X-H torsion
[ 2472 2467 2466 2463 ] final  -52.14 input  -89.97 | X-H torsion

> <Gold.Protein.ActiveResidues>
 VAL82   VAL86   LEU89   PHE106  VAL107  ASP110  VAL111  MET112  CYS114  THR115 
 CYS181  SER182  ILE183  PHE188  VAL189  ILE190  SER192  SER193  SER196  TRP342 
 PHE345  PHE346  HIS349  VAL350  TYR365  THR369  GLY372  TYR373 

> <Gold.Protein.RotatedAtoms>
    4.5835   -9.9777    4.9203 H   0  0  0  0  0  0  0  0  0  0  0  0  # atno 1303 bound_to 1298
    0.9427   -9.2852    8.2920 H   0  0  0  0  0  0  0  0  0  0  0  0  # atno 2461 bound_to 2456
   -3.6794   -5.1425    8.8488 H   0  0  0  0  0  0  0  0  0  0  0  0  # atno 2472 bound_to 2467
    2.3980   -7.4639    4.8623 H   0  0  0  0  0  0  0  0  0  0  0  0  # atno 2515 bound_to 2510
   -2.8272  -17.5443   13.0726 H   0  0  0  0  0  0  0  0  0  0  0  0  # atno 3721 bound_to 3712
   -3.9353  -23.1525   10.9671 H   0  0  0  0  0  0  0  0  0  0  0  0  # atno 3767 bound_to 3762
    3.0832  -20.2683    8.5292 H   0  0  0  0  0  0  0  0  0  0  0  0  # atno 3841 bound_to 3832
    3.3336   -9.6474    3.9228 LP  0  0  0  0  0  0  0  0  0  0  0  0  # atno 4297 bound_to 1298
    4.4449   -8.4960    4.2483 LP  0  0  0  0  0  0  0  0  0  0  0  0  # atno 4298 bound_to 1298
    2.1454   -8.3224    7.7500 LP  0  0  0  0  0  0  0  0  0  0  0  0  # atno 4299 bound_to 2456
    0.6496   -8.2008    7.1064 LP  0  0  0  0  0  0  0  0  0  0  0  0  # atno 4300 bound_to 2456
    2.7977   -9.0405    4.7203 LP  0  0  0  0  0  0  0  0  0  0  0  0  # atno 4301 bound_to 2510
    2.1010   -8.4951    6.0928 LP  0  0  0  0  0  0  0  0  0  0  0  0  # atno 4302 bound_to 2510
   -2.7287  -17.9002   14.6351 LP  0  0  0  0  0  0  0  0  0  0  0  0  # atno 4306 bound_to 3712
   -3.5349  -16.5709   14.1354 LP  0  0  0  0  0  0  0  0  0  0  0  0  # atno 4307 bound_to 3712
    2.0943  -21.0458    9.5260 LP  0  0  0  0  0  0  0  0  0  0  0  0  # atno 4314 bound_to 3832
    1.5734  -19.7465    8.6851 LP  0  0  0  0  0  0  0  0  0  0  0  0  # atno 4315 bound_to 3832
   -5.2800  -22.7735   10.1216 LP  0  0  0  0  0  0  0  0  0  0  0  0  # atno 4318 bound_to 3762
   -4.9118  -21.9493   11.4824 LP  0  0  0  0  0  0  0  0  0  0  0  0  # atno 4319 bound_to 3762
   -5.2670   -5.4133    9.1178 LP  0  0  0  0  0  0  0  0  0  0  0  0  # atno 4320 bound_to 2467
   -4.7703   -4.8378    7.6726 LP  0  0  0  0  0  0  0  0  0  0  0  0  # atno 4321 bound_to 2467

> <Gold.Score>
     Score     S(PLP)   S(hbond)     S(cho)   S(metal)  DE(clash)   DE(tors)     intcor
     47.80     -43.41       1.86       0.00       0.00       0.00       1.50       1.80

> <Gold.PLP.Fitness>
47.8009

> <Gold.PLP.PLP>
-43.4073

> <Gold.PLP.part.hbond>
-3.0000

> <Gold.PLP.part.metal>
0.0000

> <Gold.PLP.part.buried>
3.3556

> <Gold.PLP.part.nonpolar>
-44.4871

> <Gold.PLP.part.repulsive>
0.5691

> <Gold.PLP.ligand.clash>
0.0000

> <Gold.PLP.ligand.torsion>
1.5002

> <Gold.PLP.Chemscore.Hbond>
1.8640

> <Gold.PLP.Chemscore.CHOScore>
0.0000

> <Gold.PLP.Chemscore.Metal>
0.0000

> <Gold.Chemscore.Hbonds>
donor molecule, donor type, donor heavy atom, donor atom, acceptor molecule, acceptor atom, score
      P1  H  2456  2461       L1     1  1.00
      P1  H  3712  3721       L1    17  0.86

> <Gold.PLP.Chemscore.Internal.Correction>
1.8021

