#       Name:                EN300-44899_i001
#       Creating user name   fsindt
#       Creation time:       Thu Mar  2 04:57:42 2023


#       File generated by GOLD software.
#

@<TRIPOS>MOLECULE
EN300-44899_i001|acide_1|mol2|12435|dock13
    26    27     1
SMALL
USER_CHARGES


@<TRIPOS>ATOM
      1 O1          -2.5967 -24.0318  12.1035 O.co2          1 <1>               -1.0000
      2 C2          -1.5863 -23.4761  11.6961 C.2            1 <1>                0.0000
      3 O3          -1.2999 -23.5222  10.5080 O.co2          1 <1>                0.0000
      4 C4          -0.7166 -22.7453  12.6365 C.ar           1 <1>                0.0000
      5 C5          -0.2465 -23.3760  13.7914 C.ar           1 <1>                0.0000
      6 C6           0.5673 -22.6904  14.6692 C.ar           1 <1>                0.0000
      7 C7           0.9210 -21.3781  14.4108 C.ar           1 <1>                0.0000
      8 Cl8          1.9461 -20.5237  15.5213 Cl             1 <1>                0.0000
      9 C9           0.4583 -20.7405  13.2633 C.ar           1 <1>                0.0000
     10 C10         -0.3551 -21.4217  12.3729 C.ar           1 <1>                0.0000
     11 N11          0.8183 -19.4143  13.0072 N.pl3          1 <1>                0.0000
     12 C12          2.1479 -18.9364  12.5992 C.3            1 <1>                0.0000
     13 C13          2.3680 -17.4947  13.0960 C.3            1 <1>                0.0000
     14 C14          1.0403 -16.7616  12.7481 C.3            1 <1>                0.0000
     15 S15         -0.1841 -18.0820  13.1011 S.o2           1 <1>                0.0000
     16 O16         -1.1071 -18.2280  12.0306 O.2            1 <1>                0.0000
     17 O17         -0.6100 -18.0404  14.4562 O.2            1 <1>                0.0000
     18 H18         -0.5206 -24.4003  13.9969 H              1 <1>                0.0000
     19 H19          0.9293 -23.1797  15.5614 H              1 <1>                0.0000
     20 H20         -0.7149 -20.9290  11.4817 H              1 <1>                0.0000
     21 H21          2.9121 -19.5861  13.0260 H              1 <1>                0.0000
     22 H22          2.2221 -18.9591  11.5120 H              1 <1>                0.0000
     23 H23          2.5383 -17.4843  14.1724 H              1 <1>                0.0000
     24 H24          3.2059 -17.0347  12.5721 H              1 <1>                0.0000
     25 H25          0.8872 -15.8969  13.3938 H              1 <1>                0.0000
     26 H26          1.0127 -16.4750  11.6968 H              1 <1>                0.0000
@<TRIPOS>BOND
    1    1    2 ar    
    2    2    3 ar    
    3    2    4 1     
    4    4    5 ar    
    5    4   10 ar    
    6    5    6 ar    
    7    5   18 1     
    8    6    7 ar    
    9    6   19 1     
   10    7    8 1     
   11    7    9 ar    
   12    9   10 ar    
   13    9   11 1     
   14   10   20 1     
   15   11   12 1     
   16   11   15 1     
   17   12   13 1     
   18   12   21 1     
   19   12   22 1     
   20   13   14 1     
   21   13   23 1     
   22   13   24 1     
   23   14   15 1     
   24   14   25 1     
   25   14   26 1     
   26   15   16 2     
   27   15   17 2     
@<TRIPOS>SUBSTRUCTURE
      1 ****           1
@<TRIPOS>COMMENT
> <Gold.Version>
2022.2.0

> <Gold.Id.Protein>
3pbl|protein|mol2

> <Gold.Protein.RotatedTorsions>
[ 1303 1298 1297 1294 ] final -161.61 input  179.99 | X-H torsion
[ 2461 2456 2455 2452 ] final  160.67 input   30.03 | X-H torsion
[ 2515 2510 2509 2506 ] final  106.32 input  -89.99 | X-H torsion
[ 3721 3712 3711 3710 ] final   -2.75 input -179.91 | X-H torsion
[ 3841 3832 3831 3830 ] final  170.00 input -179.91 | X-H torsion
[ 3767 3762 3761 3758 ] final  127.92 input  -89.99 | X-H torsion
[ 2472 2467 2466 2463 ] final  -52.65 input  -89.97 | X-H torsion

> <Gold.Protein.ActiveResidues>
 VAL82   VAL86   LEU89   PHE106  VAL107  ASP110  VAL111  MET112  CYS114  THR115 
 CYS181  SER182  ILE183  PHE188  VAL189  ILE190  SER192  SER193  SER196  TRP342 
 PHE345  PHE346  HIS349  VAL350  TYR365  THR369  GLY372  TYR373 

> <Gold.Protein.RotatedAtoms>
    4.7246   -8.6646    4.5088 H   0  0  0  0  0  0  0  0  0  0  0  0  # atno 1303 bound_to 1298
    1.7347   -9.0816    8.3651 H   0  0  0  0  0  0  0  0  0  0  0  0  # atno 2461 bound_to 2456
   -3.6820   -5.1455    8.8563 H   0  0  0  0  0  0  0  0  0  0  0  0  # atno 2472 bound_to 2467
    2.0289   -7.9559    5.9888 H   0  0  0  0  0  0  0  0  0  0  0  0  # atno 2515 bound_to 2510
   -2.4932  -17.9399   14.2799 H   0  0  0  0  0  0  0  0  0  0  0  0  # atno 3721 bound_to 3712
   -3.9243  -23.1241   11.0124 H   0  0  0  0  0  0  0  0  0  0  0  0  # atno 3767 bound_to 3762
    3.0345  -20.1668    8.4685 H   0  0  0  0  0  0  0  0  0  0  0  0  # atno 3841 bound_to 3832
    4.2612  -10.2060    4.7842 LP  0  0  0  0  0  0  0  0  0  0  0  0  # atno 4297 bound_to 1298
    3.3762   -9.2510    3.7986 LP  0  0  0  0  0  0  0  0  0  0  0  0  # atno 4298 bound_to 1298
    1.6719   -7.9380    7.2007 LP  0  0  0  0  0  0  0  0  0  0  0  0  # atno 4299 bound_to 2456
    0.3313   -8.7887    7.5826 LP  0  0  0  0  0  0  0  0  0  0  0  0  # atno 4300 bound_to 2456
    2.6297   -7.7905    4.4797 LP  0  0  0  0  0  0  0  0  0  0  0  0  # atno 4301 bound_to 2510
    2.6384   -9.2529    5.2064 LP  0  0  0  0  0  0  0  0  0  0  0  0  # atno 4302 bound_to 2510
   -3.4570  -16.6631   14.4168 LP  0  0  0  0  0  0  0  0  0  0  0  0  # atno 4306 bound_to 3712
   -3.1923  -17.3513   12.9598 LP  0  0  0  0  0  0  0  0  0  0  0  0  # atno 4307 bound_to 3712
    2.2219  -21.0974    9.4931 LP  0  0  0  0  0  0  0  0  0  0  0  0  # atno 4314 bound_to 3832
    1.5021  -19.8122    8.7881 LP  0  0  0  0  0  0  0  0  0  0  0  0  # atno 4315 bound_to 3832
   -5.2464  -22.8134   10.1056 LP  0  0  0  0  0  0  0  0  0  0  0  0  # atno 4318 bound_to 3762
   -4.9563  -21.9378   11.4531 LP  0  0  0  0  0  0  0  0  0  0  0  0  # atno 4319 bound_to 3762
   -5.2727   -5.4117    9.1117 LP  0  0  0  0  0  0  0  0  0  0  0  0  # atno 4320 bound_to 2467
   -4.7620   -4.8364    7.6712 LP  0  0  0  0  0  0  0  0  0  0  0  0  # atno 4321 bound_to 2467

> <Gold.Score>
     Score     S(PLP)   S(hbond)     S(cho)   S(metal)  DE(clash)   DE(tors)     intcor
     37.91     -34.70       2.00       0.00       0.00       0.00       2.30       1.80

> <Gold.PLP.Fitness>
37.9077

> <Gold.PLP.PLP>
-34.6981

> <Gold.PLP.part.hbond>
-4.5576

> <Gold.PLP.part.metal>
0.0000

> <Gold.PLP.part.buried>
-2.4711

> <Gold.PLP.part.nonpolar>
-29.0510

> <Gold.PLP.part.repulsive>
0.1882

> <Gold.PLP.ligand.clash>
0.0000

> <Gold.PLP.ligand.torsion>
2.2962

> <Gold.PLP.Chemscore.Hbond>
2.0000

> <Gold.PLP.Chemscore.CHOScore>
0.0000

> <Gold.PLP.Chemscore.Metal>
0.0000

> <Gold.Chemscore.Hbonds>
donor molecule, donor type, donor heavy atom, donor atom, acceptor molecule, acceptor atom, score
      P1  H  3712  3721       L1    17  1.00
      P1  H  3762  3767       L1     1  1.00

> <Gold.PLP.Chemscore.Internal.Correction>
1.8021

