#       Name:                EN300-44899_i001
#       Creating user name   fsindt
#       Creation time:       Thu Mar  2 04:57:41 2023


#       File generated by GOLD software.
#

@<TRIPOS>MOLECULE
EN300-44899_i001|acide_1|mol2|12435|dock9
    26    27     1
SMALL
USER_CHARGES


@<TRIPOS>ATOM
      1 O1          -0.8625 -22.8354  17.7776 O.co2          1 <1>               -1.0000
      2 C2          -0.6779 -21.6771  17.4312 C.2            1 <1>                0.0000
      3 O3          -0.9686 -20.7595  18.1858 O.co2          1 <1>                0.0000
      4 C4          -0.0991 -21.3870  16.1061 C.ar           1 <1>                0.0000
      5 C5           0.1880 -22.4309  15.2227 C.ar           1 <1>                0.0000
      6 C6           0.7289 -22.1569  13.9837 C.ar           1 <1>                0.0000
      7 C7           0.9889 -20.8502  13.6108 C.ar           1 <1>                0.0000
      8 Cl8          1.6693 -20.5154  12.0490 Cl             1 <1>                0.0000
      9 C9           0.7066 -19.8031  14.4832 C.ar           1 <1>                0.0000
     10 C10          0.1586 -20.0671  15.7275 C.ar           1 <1>                0.0000
     11 N11          0.9717 -18.4847  14.1017 N.pl3          1 <1>                0.0000
     12 C12          2.3003 -17.8872  13.8995 C.3            1 <1>                0.0000
     13 C13          2.2532 -16.3769  14.2003 C.3            1 <1>                0.0000
     14 C14          0.9635 -15.8825  13.4837 C.3            1 <1>                0.0000
     15 S15         -0.1619 -17.3002  13.7847 S.o2           1 <1>                0.0000
     16 O16         -0.8085 -17.7078  12.5867 O.2            1 <1>                0.0000
     17 O17         -0.8751 -17.1418  15.0035 O.2            1 <1>                0.0000
     18 H18         -0.0133 -23.4524  15.5102 H              1 <1>                0.0000
     19 H19          0.9504 -22.9652  13.3025 H              1 <1>                0.0000
     20 H20         -0.0616 -19.2560  16.4059 H              1 <1>                0.0000
     21 H21          3.0171 -18.3662  14.5665 H              1 <1>                0.0000
     22 H22          2.6117 -18.0402  12.8662 H              1 <1>                0.0000
     23 H23          2.1825 -16.2042  15.2741 H              1 <1>                0.0000
     24 H24          3.1318 -15.8790  13.7902 H              1 <1>                0.0000
     25 H25          0.5829 -14.9704  13.9433 H              1 <1>                0.0000
     26 H26          1.1358 -15.7409  12.4168 H              1 <1>                0.0000
@<TRIPOS>BOND
    1    1    2 ar    
    2    2    3 ar    
    3    2    4 1     
    4    4    5 ar    
    5    4   10 ar    
    6    5    6 ar    
    7    5   18 1     
    8    6    7 ar    
    9    6   19 1     
   10    7    8 1     
   11    7    9 ar    
   12    9   10 ar    
   13    9   11 1     
   14   10   20 1     
   15   11   12 1     
   16   11   15 1     
   17   12   13 1     
   18   12   21 1     
   19   12   22 1     
   20   13   14 1     
   21   13   23 1     
   22   13   24 1     
   23   14   15 1     
   24   14   25 1     
   25   14   26 1     
   26   15   16 2     
   27   15   17 2     
@<TRIPOS>SUBSTRUCTURE
      1 ****           1
@<TRIPOS>COMMENT
> <Gold.Version>
2022.2.0

> <Gold.Id.Protein>
3pbl|protein|mol2

> <Gold.Protein.RotatedTorsions>
[ 1303 1298 1297 1294 ] final   -6.42 input  179.99 | X-H torsion
[ 2461 2456 2455 2452 ] final   79.12 input   30.03 | X-H torsion
[ 2515 2510 2509 2506 ] final  131.23 input  -89.99 | X-H torsion
[ 3721 3712 3711 3710 ] final   73.66 input -179.91 | X-H torsion
[ 3841 3832 3831 3830 ] final   23.72 input -179.91 | X-H torsion
[ 3767 3762 3761 3758 ] final   35.35 input  -89.99 | X-H torsion
[ 2472 2467 2466 2463 ] final    6.79 input  -89.97 | X-H torsion

> <Gold.Protein.ActiveResidues>
 VAL82   VAL86   LEU89   PHE106  VAL107  ASP110  VAL111  MET112  CYS114  THR115 
 CYS181  SER182  ILE183  PHE188  VAL189  ILE190  SER192  SER193  SER196  TRP342 
 PHE345  PHE346  HIS349  VAL350  TYR365  THR369  GLY372  TYR373 

> <Gold.Protein.RotatedAtoms>
    3.3579   -9.7859    3.9941 H   0  0  0  0  0  0  0  0  0  0  0  0  # atno 1303 bound_to 1298
    2.0835   -8.1871    7.5933 H   0  0  0  0  0  0  0  0  0  0  0  0  # atno 2461 bound_to 2456
   -3.8658   -4.8526    7.9877 H   0  0  0  0  0  0  0  0  0  0  0  0  # atno 2472 bound_to 2467
    2.0685   -8.3463    6.0944 H   0  0  0  0  0  0  0  0  0  0  0  0  # atno 2515 bound_to 2510
   -2.6713  -17.7914   13.2338 H   0  0  0  0  0  0  0  0  0  0  0  0  # atno 3721 bound_to 3712
   -4.9113  -23.1075   10.0725 H   0  0  0  0  0  0  0  0  0  0  0  0  # atno 3767 bound_to 3762
    1.9875  -20.7311    9.6220 H   0  0  0  0  0  0  0  0  0  0  0  0  # atno 3841 bound_to 3832
    4.3202   -8.4765    4.1541 LP  0  0  0  0  0  0  0  0  0  0  0  0  # atno 4297 bound_to 1298
    4.6844   -9.8588    4.9435 LP  0  0  0  0  0  0  0  0  0  0  0  0  # atno 4298 bound_to 1298
    0.5072   -8.3379    7.1936 LP  0  0  0  0  0  0  0  0  0  0  0  0  # atno 4299 bound_to 2456
    1.1473   -9.2831    8.3612 LP  0  0  0  0  0  0  0  0  0  0  0  0  # atno 4300 bound_to 2456
    2.4631   -7.5256    4.7392 LP  0  0  0  0  0  0  0  0  0  0  0  0  # atno 4301 bound_to 2510
    2.7654   -9.1271    4.8412 LP  0  0  0  0  0  0  0  0  0  0  0  0  # atno 4302 bound_to 2510
   -2.8762  -17.6148   14.8164 LP  0  0  0  0  0  0  0  0  0  0  0  0  # atno 4306 bound_to 3712
   -3.5675  -16.5710   13.7680 LP  0  0  0  0  0  0  0  0  0  0  0  0  # atno 4307 bound_to 3712
    1.8076  -19.6476    8.4516 LP  0  0  0  0  0  0  0  0  0  0  0  0  # atno 4314 bound_to 3832
    3.1259  -20.6102    8.4971 LP  0  0  0  0  0  0  0  0  0  0  0  0  # atno 4315 bound_to 3832
   -5.2803  -21.9323   11.1447 LP  0  0  0  0  0  0  0  0  0  0  0  0  # atno 4318 bound_to 3762
   -3.9359  -22.8354   11.3537 LP  0  0  0  0  0  0  0  0  0  0  0  0  # atno 4319 bound_to 3762
   -4.3913   -5.4270    9.4231 LP  0  0  0  0  0  0  0  0  0  0  0  0  # atno 4320 bound_to 2467
   -5.4596   -5.1139    8.2283 LP  0  0  0  0  0  0  0  0  0  0  0  0  # atno 4321 bound_to 2467

> <Gold.Score>
     Score     S(PLP)   S(hbond)     S(cho)   S(metal)  DE(clash)   DE(tors)     intcor
     39.62     -37.53       0.96       0.00       0.00       0.00       1.30       1.80

> <Gold.PLP.Fitness>
39.6236

> <Gold.PLP.PLP>
-37.5345

> <Gold.PLP.part.hbond>
-2.0000

> <Gold.PLP.part.metal>
0.0000

> <Gold.PLP.part.buried>
-3.4733

> <Gold.PLP.part.nonpolar>
-32.8171

> <Gold.PLP.part.repulsive>
0.1581

> <Gold.PLP.ligand.clash>
0.0000

> <Gold.PLP.ligand.torsion>
1.2965

> <Gold.PLP.Chemscore.Hbond>
0.9600

> <Gold.PLP.Chemscore.CHOScore>
0.0000

> <Gold.PLP.Chemscore.Metal>
0.0000

> <Gold.Chemscore.Hbonds>
donor molecule, donor type, donor heavy atom, donor atom, acceptor molecule, acceptor atom, score
      P1  H  3712  3721       L1    16  0.96

> <Gold.PLP.Chemscore.Internal.Correction>
1.8021

