#       Name:                EN300-44899_i001
#       Creating user name   fsindt
#       Creation time:       Thu Mar  2 04:57:43 2023


#       File generated by GOLD software.
#

@<TRIPOS>MOLECULE
EN300-44899_i001|acide_1|mol2|12435|dock16
    26    27     1
SMALL
USER_CHARGES


@<TRIPOS>ATOM
      1 O1          -0.9069 -16.7285  12.9405 O.co2          1 <1>               -1.0000
      2 C2          -0.1120 -15.8038  13.0338 C.2            1 <1>                0.0000
      3 O3           0.4683 -15.6005  14.0910 O.co2          1 <1>                0.0000
      4 C4           0.1513 -14.9374  11.8697 C.ar           1 <1>                0.0000
      5 C5           1.2153 -15.2227  11.0099 C.ar           1 <1>                0.0000
      6 C6           1.4593 -14.4111   9.9215 C.ar           1 <1>                0.0000
      7 C7           0.6534 -13.3134   9.6766 C.ar           1 <1>                0.0000
      8 Cl8          0.9682 -12.2983   8.3039 Cl             1 <1>                0.0000
      9 C9          -0.4090 -13.0205  10.5268 C.ar           1 <1>                0.0000
     10 C10         -0.6656 -13.8321  11.6194 C.ar           1 <1>                0.0000
     11 N11         -1.2198 -11.9100  10.2751 N.pl3          1 <1>                0.0000
     12 C12         -2.0420 -11.6860   9.0765 C.3            1 <1>                0.0000
     13 C13         -2.1897 -10.1757   8.8101 C.3            1 <1>                0.0000
     14 C14         -2.5115  -9.5690  10.2064 C.3            1 <1>                0.0000
     15 S15         -1.4388 -10.5968  11.2833 S.o2           1 <1>                0.0000
     16 O16         -2.1592 -11.0961  12.4019 O.2            1 <1>                0.0000
     17 O17         -0.1462 -10.0228  11.4211 O.2            1 <1>                0.0000
     18 H18          1.8469 -16.0784  11.1978 H              1 <1>                0.0000
     19 H19          2.2824 -14.6331   9.2584 H              1 <1>                0.0000
     20 H20         -1.4898 -13.6068  12.2801 H              1 <1>                0.0000
     21 H21         -1.5655 -12.1593   8.2179 H              1 <1>                0.0000
     22 H22         -3.0284 -12.1243   9.2279 H              1 <1>                0.0000
     23 H23         -1.2582  -9.7643   8.4214 H              1 <1>                0.0000
     24 H24         -3.0088  -9.9894   8.1156 H              1 <1>                0.0000
     25 H25         -2.2284  -8.5175  10.2535 H              1 <1>                0.0000
     26 H26         -3.5629  -9.7032  10.4609 H              1 <1>                0.0000
@<TRIPOS>BOND
    1    1    2 ar    
    2    2    3 ar    
    3    2    4 1     
    4    4    5 ar    
    5    4   10 ar    
    6    5    6 ar    
    7    5   18 1     
    8    6    7 ar    
    9    6   19 1     
   10    7    8 1     
   11    7    9 ar    
   12    9   10 ar    
   13    9   11 1     
   14   10   20 1     
   15   11   12 1     
   16   11   15 1     
   17   12   13 1     
   18   12   21 1     
   19   12   22 1     
   20   13   14 1     
   21   13   23 1     
   22   13   24 1     
   23   14   15 1     
   24   14   25 1     
   25   14   26 1     
   26   15   16 2     
   27   15   17 2     
@<TRIPOS>SUBSTRUCTURE
      1 ****           1
@<TRIPOS>COMMENT
> <Gold.Version>
2022.2.0

> <Gold.Id.Protein>
3pbl|protein|mol2

> <Gold.Protein.RotatedTorsions>
[ 1303 1298 1297 1294 ] final -111.04 input  179.99 | X-H torsion
[ 2461 2456 2455 2452 ] final  172.87 input   30.03 | X-H torsion
[ 2515 2510 2509 2506 ] final  -68.76 input  -89.99 | X-H torsion
[ 3721 3712 3711 3710 ] final   87.20 input -179.91 | X-H torsion
[ 3841 3832 3831 3830 ] final -109.61 input -179.91 | X-H torsion
[ 3767 3762 3761 3758 ] final  -14.89 input  -89.99 | X-H torsion
[ 2472 2467 2466 2463 ] final    2.44 input  -89.97 | X-H torsion

> <Gold.Protein.ActiveResidues>
 VAL82   VAL86   LEU89   PHE106  VAL107  ASP110  VAL111  MET112  CYS114  THR115 
 CYS181  SER182  ILE183  PHE188  VAL189  ILE190  SER192  SER193  SER196  TRP342 
 PHE345  PHE346  HIS349  VAL350  TYR365  THR369  GLY372  TYR373 

> <Gold.Protein.RotatedAtoms>
    4.1097   -8.4975    4.0166 H   0  0  0  0  0  0  0  0  0  0  0  0  # atno 1303 bound_to 1298
    1.5600   -9.1746    8.3970 H   0  0  0  0  0  0  0  0  0  0  0  0  # atno 2461 bound_to 2456
   -3.8210   -4.8671    8.0416 H   0  0  0  0  0  0  0  0  0  0  0  0  # atno 2472 bound_to 2467
    2.8339   -8.6365    4.4283 H   0  0  0  0  0  0  0  0  0  0  0  0  # atno 2515 bound_to 2510
   -2.7636  -17.6477   13.1220 H   0  0  0  0  0  0  0  0  0  0  0  0  # atno 3721 bound_to 3712
   -5.4351  -22.5326   10.2624 H   0  0  0  0  0  0  0  0  0  0  0  0  # atno 3767 bound_to 3762
    2.0858  -19.5797    8.5303 H   0  0  0  0  0  0  0  0  0  0  0  0  # atno 3841 bound_to 3832
    4.8114   -9.6410    4.9473 LP  0  0  0  0  0  0  0  0  0  0  0  0  # atno 4297 bound_to 1298
    3.4411   -9.9831    4.1278 LP  0  0  0  0  0  0  0  0  0  0  0  0  # atno 4298 bound_to 1298
    1.8335   -7.9887    7.3078 LP  0  0  0  0  0  0  0  0  0  0  0  0  # atno 4299 bound_to 2456
    0.3444   -8.6450    7.4436 LP  0  0  0  0  0  0  0  0  0  0  0  0  # atno 4300 bound_to 2456
    2.2656   -8.9377    5.9290 LP  0  0  0  0  0  0  0  0  0  0  0  0  # atno 4301 bound_to 2510
    2.1970   -7.4248    5.3183 LP  0  0  0  0  0  0  0  0  0  0  0  0  # atno 4302 bound_to 2510
   -2.7811  -17.7956   14.7206 LP  0  0  0  0  0  0  0  0  0  0  0  0  # atno 4306 bound_to 3712
   -3.5560  -16.5561   13.9929 LP  0  0  0  0  0  0  0  0  0  0  0  0  # atno 4307 bound_to 3712
    3.1091  -20.8067    8.6835 LP  0  0  0  0  0  0  0  0  0  0  0  0  # atno 4314 bound_to 3832
    1.7107  -20.7810    9.5264 LP  0  0  0  0  0  0  0  0  0  0  0  0  # atno 4315 bound_to 3832
   -4.6414  -22.0611   11.6095 LP  0  0  0  0  0  0  0  0  0  0  0  0  # atno 4318 bound_to 3762
   -4.0511  -23.2814   10.6990 LP  0  0  0  0  0  0  0  0  0  0  0  0  # atno 4319 bound_to 3762
   -4.4617   -5.4376    9.4311 LP  0  0  0  0  0  0  0  0  0  0  0  0  # atno 4320 bound_to 2467
   -5.4340   -5.0888    8.1663 LP  0  0  0  0  0  0  0  0  0  0  0  0  # atno 4321 bound_to 2467

> <Gold.Score>
     Score     S(PLP)   S(hbond)     S(cho)   S(metal)  DE(clash)   DE(tors)     intcor
     42.76     -41.91       1.45       0.00       0.00       0.00       2.65       1.80

> <Gold.PLP.Fitness>
42.7565

> <Gold.PLP.PLP>
-41.9058

> <Gold.PLP.part.hbond>
-3.0000

> <Gold.PLP.part.metal>
0.0000

> <Gold.PLP.part.buried>
3.4984

> <Gold.PLP.part.nonpolar>
-43.8489

> <Gold.PLP.part.repulsive>
0.2400

> <Gold.PLP.ligand.clash>
0.0000

> <Gold.PLP.ligand.torsion>
2.6477

> <Gold.PLP.Chemscore.Hbond>
1.4480

> <Gold.PLP.Chemscore.CHOScore>
0.0000

> <Gold.PLP.Chemscore.Metal>
0.0000

> <Gold.Chemscore.Hbonds>
donor molecule, donor type, donor heavy atom, donor atom, acceptor molecule, acceptor atom, score
      P1  H  2305  2313       L1     3  1.00
      P1  H  3712  3721       L1     1  0.45

> <Gold.PLP.Chemscore.Internal.Correction>
1.8021

