#       Name:                EN300-44899_i001
#       Creating user name   fsindt
#       Creation time:       Thu Mar  2 04:57:44 2023


#       File generated by GOLD software.
#

@<TRIPOS>MOLECULE
EN300-44899_i001|acide_1|mol2|12435|dock19
    26    27     1
SMALL
USER_CHARGES


@<TRIPOS>ATOM
      1 O1          -5.1475 -11.9483   9.2922 O.co2          1 <1>               -1.0000
      2 C2          -4.6721 -11.0130   9.9206 C.2            1 <1>                0.0000
      3 O3          -5.4095 -10.1824  10.4326 O.co2          1 <1>                0.0000
      4 C4          -3.2096 -10.8900  10.0660 C.ar           1 <1>                0.0000
      5 C5          -2.6516  -9.7104  10.5658 C.ar           1 <1>                0.0000
      6 C6          -1.2835  -9.5980  10.7013 C.ar           1 <1>                0.0000
      7 C7          -0.4593 -10.6502  10.3439 C.ar           1 <1>                0.0000
      8 Cl8          1.2613 -10.4993  10.5186 Cl             1 <1>                0.0000
      9 C9          -1.0049 -11.8295   9.8450 C.ar           1 <1>                0.0000
     10 C10         -2.3778 -11.9545   9.7100 C.ar           1 <1>                0.0000
     11 N11         -0.1678 -12.8894   9.4849 N.pl3          1 <1>                0.0000
     12 C12          0.3616 -13.9252  10.3847 C.3            1 <1>                0.0000
     13 C13          1.7196 -14.4346   9.8650 C.3            1 <1>                0.0000
     14 C14          1.4927 -14.6461   8.3402 C.3            1 <1>                0.0000
     15 S15          0.4095 -13.2167   7.9524 S.o2           1 <1>                0.0000
     16 O16         -0.7262 -13.6204   7.1998 O.2            1 <1>                0.0000
     17 O17          1.1740 -12.0724   7.5982 O.2            1 <1>                0.0000
     18 H18         -3.2915  -8.8866  10.8457 H              1 <1>                0.0000
     19 H19         -0.8541  -8.6853  11.0876 H              1 <1>                0.0000
     20 H20         -2.8032 -12.8688   9.3235 H              1 <1>                0.0000
     21 H21          0.4910 -13.5054  11.3823 H              1 <1>                0.0000
     22 H22         -0.3418 -14.7564  10.4322 H              1 <1>                0.0000
     23 H23          2.4966 -13.6894  10.0349 H              1 <1>                0.0000
     24 H24          1.9825 -15.3770  10.3456 H              1 <1>                0.0000
     25 H25          2.4325 -14.5911   7.7910 H              1 <1>                0.0000
     26 H26          0.9800 -15.5882   8.1456 H              1 <1>                0.0000
@<TRIPOS>BOND
    1    1    2 ar    
    2    2    3 ar    
    3    2    4 1     
    4    4    5 ar    
    5    4   10 ar    
    6    5    6 ar    
    7    5   18 1     
    8    6    7 ar    
    9    6   19 1     
   10    7    8 1     
   11    7    9 ar    
   12    9   10 ar    
   13    9   11 1     
   14   10   20 1     
   15   11   12 1     
   16   11   15 1     
   17   12   13 1     
   18   12   21 1     
   19   12   22 1     
   20   13   14 1     
   21   13   23 1     
   22   13   24 1     
   23   14   15 1     
   24   14   25 1     
   25   14   26 1     
   26   15   16 2     
   27   15   17 2     
@<TRIPOS>SUBSTRUCTURE
      1 ****           1
@<TRIPOS>COMMENT
> <Gold.Version>
2022.2.0

> <Gold.Id.Protein>
3pbl|protein|mol2

> <Gold.Protein.RotatedTorsions>
[ 1303 1298 1297 1294 ] final -143.73 input  179.99 | X-H torsion
[ 2461 2456 2455 2452 ] final   90.73 input   30.03 | X-H torsion
[ 2515 2510 2509 2506 ] final  110.10 input  -89.99 | X-H torsion
[ 3721 3712 3711 3710 ] final  163.38 input -179.91 | X-H torsion
[ 3841 3832 3831 3830 ] final   13.49 input -179.91 | X-H torsion
[ 3767 3762 3761 3758 ] final -172.30 input  -89.99 | X-H torsion
[ 2472 2467 2466 2463 ] final -148.33 input  -89.97 | X-H torsion

> <Gold.Protein.ActiveResidues>
 VAL82   VAL86   LEU89   PHE106  VAL107  ASP110  VAL111  MET112  CYS114  THR115 
 CYS181  SER182  ILE183  PHE188  VAL189  ILE190  SER192  SER193  SER196  TRP342 
 PHE345  PHE346  HIS349  VAL350  TYR365  THR369  GLY372  TYR373 

> <Gold.Protein.RotatedAtoms>
    4.5386   -8.5297    4.3271 H   0  0  0  0  0  0  0  0  0  0  0  0  # atno 1303 bound_to 1298
    2.1408   -8.3055    7.7315 H   0  0  0  0  0  0  0  0  0  0  0  0  # atno 2461 bound_to 2456
   -4.9537   -5.4608    9.3431 H   0  0  0  0  0  0  0  0  0  0  0  0  # atno 2472 bound_to 2467
    2.0301   -8.0123    6.0148 H   0  0  0  0  0  0  0  0  0  0  0  0  # atno 2515 bound_to 2510
   -3.2699  -16.7310   13.3351 H   0  0  0  0  0  0  0  0  0  0  0  0  # atno 3721 bound_to 3712
   -4.1693  -22.4390   11.6075 H   0  0  0  0  0  0  0  0  0  0  0  0  # atno 3767 bound_to 3762
    1.8691  -20.6331    9.6076 H   0  0  0  0  0  0  0  0  0  0  0  0  # atno 3841 bound_to 3832
    4.4934  -10.0619    4.8897 LP  0  0  0  0  0  0  0  0  0  0  0  0  # atno 4297 bound_to 1298
    3.3300   -9.5300    3.8748 LP  0  0  0  0  0  0  0  0  0  0  0  0  # atno 4298 bound_to 1298
    0.6311   -8.2159    7.1150 LP  0  0  0  0  0  0  0  0  0  0  0  0  # atno 4299 bound_to 2456
    0.9662   -9.2866    8.3016 LP  0  0  0  0  0  0  0  0  0  0  0  0  # atno 4300 bound_to 2456
    2.6061   -7.7424    4.5110 LP  0  0  0  0  0  0  0  0  0  0  0  0  # atno 4301 bound_to 2510
    2.6608   -9.2446    5.1491 LP  0  0  0  0  0  0  0  0  0  0  0  0  # atno 4302 bound_to 2510
   -2.6548  -18.1877   13.6135 LP  0  0  0  0  0  0  0  0  0  0  0  0  # atno 4306 bound_to 3712
   -3.0977  -17.2223   14.8539 LP  0  0  0  0  0  0  0  0  0  0  0  0  # atno 4307 bound_to 3712
    1.9466  -19.6343    8.3536 LP  0  0  0  0  0  0  0  0  0  0  0  0  # atno 4314 bound_to 3832
    3.1236  -20.7365    8.6117 LP  0  0  0  0  0  0  0  0  0  0  0  0  # atno 4315 bound_to 3832
   -4.4648  -23.3120   10.2594 LP  0  0  0  0  0  0  0  0  0  0  0  0  # atno 4318 bound_to 3762
   -5.4930  -22.1240   10.7045 LP  0  0  0  0  0  0  0  0  0  0  0  0  # atno 4319 bound_to 3762
   -5.1236   -4.9260    7.8096 LP  0  0  0  0  0  0  0  0  0  0  0  0  # atno 4320 bound_to 2467
   -3.6397   -5.0068    8.4866 LP  0  0  0  0  0  0  0  0  0  0  0  0  # atno 4321 bound_to 2467

> <Gold.Score>
     Score     S(PLP)   S(hbond)     S(cho)   S(metal)  DE(clash)   DE(tors)     intcor
     43.71     -45.05       0.00       0.00       0.00       0.00       1.55       1.77

> <Gold.PLP.Fitness>
43.7119

> <Gold.PLP.PLP>
-45.0470

> <Gold.PLP.part.hbond>
-0.7996

> <Gold.PLP.part.metal>
0.0000

> <Gold.PLP.part.buried>
5.4760

> <Gold.PLP.part.nonpolar>
-51.1983

> <Gold.PLP.part.repulsive>
0.3600

> <Gold.PLP.ligand.clash>
0.0000

> <Gold.PLP.ligand.torsion>
1.5519

> <Gold.PLP.Chemscore.Hbond>
0.0000

> <Gold.PLP.Chemscore.CHOScore>
0.0000

> <Gold.PLP.Chemscore.Metal>
0.0000

> <Gold.PLP.Chemscore.Internal.Correction>
1.7688

