#       Name:                EN300-44899_i001
#       Creating user name   fsindt
#       Creation time:       Thu Mar  2 04:57:40 2023


#       File generated by GOLD software.
#

@<TRIPOS>MOLECULE
EN300-44899_i001|acide_1|mol2|12435|dock7
    26    27     1
SMALL
USER_CHARGES


@<TRIPOS>ATOM
      1 O1           1.9518 -13.1036   5.7634 O.co2          1 <1>               -1.0000
      2 C2           1.5054 -12.2178   6.4788 C.2            1 <1>                0.0000
      3 O3           1.5802 -11.0496   6.1244 O.co2          1 <1>                0.0000
      4 C4           0.8715 -12.5586   7.7660 C.ar           1 <1>                0.0000
      5 C5           1.4564 -13.5106   8.6052 C.ar           1 <1>                0.0000
      6 C6           0.8618 -13.8273   9.8089 C.ar           1 <1>                0.0000
      7 C7          -0.3139 -13.2054  10.1900 C.ar           1 <1>                0.0000
      8 Cl8         -1.0544 -13.6104  11.7070 Cl             1 <1>                0.0000
      9 C9          -0.9047 -12.2558   9.3615 C.ar           1 <1>                0.0000
     10 C10         -0.3129 -11.9268   8.1532 C.ar           1 <1>                0.0000
     11 N11         -2.0928 -11.6307   9.7510 N.pl3          1 <1>                0.0000
     12 C12         -3.4119 -12.2688   9.8761 C.3            1 <1>                0.0000
     13 C13         -4.5260 -11.2386   9.6097 C.3            1 <1>                0.0000
     14 C14         -4.0910  -9.9838  10.4206 C.3            1 <1>                0.0000
     15 S15         -2.2741 -10.0235  10.1668 S.o2           1 <1>                0.0000
     16 O16         -1.5789  -9.8713  11.3968 O.2            1 <1>                0.0000
     17 O17         -1.9010  -9.3006   9.0017 O.2            1 <1>                0.0000
     18 H18          2.3740 -13.9986   8.3112 H              1 <1>                0.0000
     19 H19          1.3153 -14.5636  10.4560 H              1 <1>                0.0000
     20 H20         -0.7695 -11.1899   7.5090 H              1 <1>                0.0000
     21 H21         -3.4904 -13.0808   9.1532 H              1 <1>                0.0000
     22 H22         -3.5247 -12.6707  10.8829 H              1 <1>                0.0000
     23 H23         -4.5826 -11.0046   8.5467 H              1 <1>                0.0000
     24 H24         -5.4846 -11.6119   9.9701 H              1 <1>                0.0000
     25 H25         -4.5289  -9.0759  10.0059 H              1 <1>                0.0000
     26 H26         -4.3399 -10.0918  11.4763 H              1 <1>                0.0000
@<TRIPOS>BOND
    1    1    2 ar    
    2    2    3 ar    
    3    2    4 1     
    4    4    5 ar    
    5    4   10 ar    
    6    5    6 ar    
    7    5   18 1     
    8    6    7 ar    
    9    6   19 1     
   10    7    8 1     
   11    7    9 ar    
   12    9   10 ar    
   13    9   11 1     
   14   10   20 1     
   15   11   12 1     
   16   11   15 1     
   17   12   13 1     
   18   12   21 1     
   19   12   22 1     
   20   13   14 1     
   21   13   23 1     
   22   13   24 1     
   23   14   15 1     
   24   14   25 1     
   25   14   26 1     
   26   15   16 2     
   27   15   17 2     
@<TRIPOS>SUBSTRUCTURE
      1 ****           1
@<TRIPOS>COMMENT
> <Gold.Version>
2022.2.0

> <Gold.Id.Protein>
3pbl|protein|mol2

> <Gold.Protein.RotatedTorsions>
[ 1303 1298 1297 1294 ] final  133.31 input  179.99 | X-H torsion
[ 2461 2456 2455 2452 ] final   79.59 input   30.03 | X-H torsion
[ 2515 2510 2509 2506 ] final -168.06 input  -89.99 | X-H torsion
[ 3721 3712 3711 3710 ] final -135.31 input -179.91 | X-H torsion
[ 3841 3832 3831 3830 ] final   67.25 input -179.91 | X-H torsion
[ 3767 3762 3761 3758 ] final  167.30 input  -89.99 | X-H torsion
[ 2472 2467 2466 2463 ] final -157.77 input  -89.97 | X-H torsion

> <Gold.Protein.ActiveResidues>
 VAL82   VAL86   LEU89   PHE106  VAL107  ASP110  VAL111  MET112  CYS114  THR115 
 CYS181  SER182  ILE183  PHE188  VAL189  ILE190  SER192  SER193  SER196  TRP342 
 PHE345  PHE346  HIS349  VAL350  TYR365  THR369  GLY372  TYR373 

> <Gold.Protein.RotatedAtoms>
    4.8383   -9.5749    4.9410 H   0  0  0  0  0  0  0  0  0  0  0  0  # atno 1303 bound_to 1298
    2.0865   -8.1916    7.5988 H   0  0  0  0  0  0  0  0  0  0  0  0  # atno 2461 bound_to 2456
   -5.0890   -5.4487    9.2683 H   0  0  0  0  0  0  0  0  0  0  0  0  # atno 2472 bound_to 2467
    2.4065   -9.1457    5.7017 H   0  0  0  0  0  0  0  0  0  0  0  0  # atno 2515 bound_to 2510
   -3.2859  -16.5683   14.2031 H   0  0  0  0  0  0  0  0  0  0  0  0  # atno 3721 bound_to 3712
   -3.9962  -22.6898   11.4708 H   0  0  0  0  0  0  0  0  0  0  0  0  # atno 3767 bound_to 3762
    2.5677  -20.9553    9.4635 H   0  0  0  0  0  0  0  0  0  0  0  0  # atno 3841 bound_to 3832
    3.4737  -10.0313    4.1691 LP  0  0  0  0  0  0  0  0  0  0  0  0  # atno 4297 bound_to 1298
    4.0499   -8.5150    3.9812 LP  0  0  0  0  0  0  0  0  0  0  0  0  # atno 4298 bound_to 1298
    0.5116   -8.3327    7.1900 LP  0  0  0  0  0  0  0  0  0  0  0  0  # atno 4299 bound_to 2456
    1.1399   -9.2838    8.3593 LP  0  0  0  0  0  0  0  0  0  0  0  0  # atno 4300 bound_to 2456
    2.0962   -7.5449    5.6186 LP  0  0  0  0  0  0  0  0  0  0  0  0  # atno 4301 bound_to 2510
    2.7940   -8.3081    4.3548 LP  0  0  0  0  0  0  0  0  0  0  0  0  # atno 4302 bound_to 2510
   -3.0630  -17.5750   12.9723 LP  0  0  0  0  0  0  0  0  0  0  0  0  # atno 4306 bound_to 3712
   -2.6711  -18.0229   14.4930 LP  0  0  0  0  0  0  0  0  0  0  0  0  # atno 4307 bound_to 3712
    1.4200  -19.9510    8.9633 LP  0  0  0  0  0  0  0  0  0  0  0  0  # atno 4314 bound_to 3832
    2.8432  -20.0478    8.1686 LP  0  0  0  0  0  0  0  0  0  0  0  0  # atno 4315 bound_to 3832
   -4.7465  -23.2054   10.1150 LP  0  0  0  0  0  0  0  0  0  0  0  0  # atno 4318 bound_to 3762
   -5.3844  -21.9799   10.9855 LP  0  0  0  0  0  0  0  0  0  0  0  0  # atno 4319 bound_to 3762
   -4.9918   -4.8859    7.7385 LP  0  0  0  0  0  0  0  0  0  0  0  0  # atno 4320 bound_to 2467
   -3.6363   -5.0590    8.6325 LP  0  0  0  0  0  0  0  0  0  0  0  0  # atno 4321 bound_to 2467

> <Gold.Score>
     Score     S(PLP)   S(hbond)     S(cho)   S(metal)  DE(clash)   DE(tors)     intcor
     47.30     -47.54       0.64       0.00       0.00       0.00       1.99       1.80

> <Gold.PLP.Fitness>
47.3006

> <Gold.PLP.PLP>
-47.5428

> <Gold.PLP.part.hbond>
-2.5455

> <Gold.PLP.part.metal>
0.0000

> <Gold.PLP.part.buried>
4.1024

> <Gold.PLP.part.nonpolar>
-51.4676

> <Gold.PLP.part.repulsive>
0.4825

> <Gold.PLP.ligand.clash>
0.0000

> <Gold.PLP.ligand.torsion>
1.9886

> <Gold.PLP.Chemscore.Hbond>
0.6443

> <Gold.PLP.Chemscore.CHOScore>
0.0000

> <Gold.PLP.Chemscore.Metal>
0.0000

> <Gold.Chemscore.Hbonds>
donor molecule, donor type, donor heavy atom, donor atom, acceptor molecule, acceptor atom, score
      P1  H  2510  2515       L1     3  0.64

> <Gold.PLP.Chemscore.Internal.Correction>
1.8021

