#       Name:                EN300-44899_i001
#       Creating user name   fsindt
#       Creation time:       Thu Mar  2 04:57:43 2023


#       File generated by GOLD software.
#

@<TRIPOS>MOLECULE
EN300-44899_i001|acide_1|mol2|12435|dock17
    26    27     1
SMALL
USER_CHARGES


@<TRIPOS>ATOM
      1 O1          -3.0030 -21.1645  18.1323 O.co2          1 <1>               -1.0000
      2 C2          -2.4640 -20.2012  17.6059 C.2            1 <1>                0.0000
      3 O3          -2.6984 -19.0716  18.0122 O.co2          1 <1>                0.0000
      4 C4          -1.5265 -20.4019  16.4853 C.ar           1 <1>                0.0000
      5 C5          -1.2739 -21.6895  16.0046 C.ar           1 <1>                0.0000
      6 C6          -0.3970 -21.8745  14.9560 C.ar           1 <1>                0.0000
      7 C7           0.2350 -20.7887  14.3766 C.ar           1 <1>                0.0000
      8 Cl8          1.3366 -21.0317  13.0570 Cl             1 <1>                0.0000
      9 C9          -0.0095 -19.5020  14.8478 C.ar           1 <1>                0.0000
     10 C10         -0.8923 -19.3049  15.8968 C.ar           1 <1>                0.0000
     11 N11          0.6320 -18.4084  14.2592 N.pl3          1 <1>                0.0000
     12 C12          2.0748 -18.2783  14.0059 C.3            1 <1>                0.0000
     13 C13          2.4880 -16.7946  14.0462 C.3            1 <1>                0.0000
     14 C14          1.3937 -16.0682  13.2120 C.3            1 <1>                0.0000
     15 S15         -0.0997 -17.0122  13.7079 S.o2           1 <1>                0.0000
     16 O16         -0.8595 -17.4070  12.5738 O.2            1 <1>                0.0000
     17 O17         -0.7112 -16.4422  14.8570 O.2            1 <1>                0.0000
     18 H18         -1.7651 -22.5398  16.4543 H              1 <1>                0.0000
     19 H19         -0.2029 -22.8705  14.5861 H              1 <1>                0.0000
     20 H20         -1.0838 -18.3073  16.2637 H              1 <1>                0.0000
     21 H21          2.6266 -18.8278  14.7687 H              1 <1>                0.0000
     22 H22          2.3080 -18.6917  13.0247 H              1 <1>                0.0000
     23 H23          2.4911 -16.4276  15.0725 H              1 <1>                0.0000
     24 H24          3.4683 -16.6594  13.5891 H              1 <1>                0.0000
     25 H25          1.3121 -15.0196  13.4978 H              1 <1>                0.0000
     26 H26          1.5819 -16.1692  12.1431 H              1 <1>                0.0000
@<TRIPOS>BOND
    1    1    2 ar    
    2    2    3 ar    
    3    2    4 1     
    4    4    5 ar    
    5    4   10 ar    
    6    5    6 ar    
    7    5   18 1     
    8    6    7 ar    
    9    6   19 1     
   10    7    8 1     
   11    7    9 ar    
   12    9   10 ar    
   13    9   11 1     
   14   10   20 1     
   15   11   12 1     
   16   11   15 1     
   17   12   13 1     
   18   12   21 1     
   19   12   22 1     
   20   13   14 1     
   21   13   23 1     
   22   13   24 1     
   23   14   15 1     
   24   14   25 1     
   25   14   26 1     
   26   15   16 2     
   27   15   17 2     
@<TRIPOS>SUBSTRUCTURE
      1 ****           1
@<TRIPOS>COMMENT
> <Gold.Version>
2022.2.0

> <Gold.Id.Protein>
3pbl|protein|mol2

> <Gold.Protein.RotatedTorsions>
[ 1303 1298 1297 1294 ] final   17.28 input  179.99 | X-H torsion
[ 2461 2456 2455 2452 ] final    2.00 input   30.03 | X-H torsion
[ 2515 2510 2509 2506 ] final  142.38 input  -89.99 | X-H torsion
[ 3721 3712 3711 3710 ] final   73.89 input -179.91 | X-H torsion
[ 3841 3832 3831 3830 ] final  164.88 input -179.91 | X-H torsion
[ 3767 3762 3761 3758 ] final   96.15 input  -89.99 | X-H torsion
[ 2472 2467 2466 2463 ] final  -27.02 input  -89.97 | X-H torsion

> <Gold.Protein.ActiveResidues>
 VAL82   VAL86   LEU89   PHE106  VAL107  ASP110  VAL111  MET112  CYS114  THR115 
 CYS181  SER182  ILE183  PHE188  VAL189  ILE190  SER192  SER193  SER196  TRP342 
 PHE345  PHE346  HIS349  VAL350  TYR365  THR369  GLY372  TYR373 

> <Gold.Protein.RotatedAtoms>
    3.5067  -10.0718    4.2084 H   0  0  0  0  0  0  0  0  0  0  0  0  # atno 1303 bound_to 1298
    1.0722   -7.9779    7.0313 H   0  0  0  0  0  0  0  0  0  0  0  0  # atno 2461 bound_to 2456
   -3.6421   -5.0004    8.4660 H   0  0  0  0  0  0  0  0  0  0  0  0  # atno 2472 bound_to 2467
    2.1091   -8.5249    6.0894 H   0  0  0  0  0  0  0  0  0  0  0  0  # atno 2515 bound_to 2510
   -2.6727  -17.7892   13.2316 H   0  0  0  0  0  0  0  0  0  0  0  0  # atno 3721 bound_to 3712
   -4.1299  -23.3155   10.5795 H   0  0  0  0  0  0  0  0  0  0  0  0  # atno 3767 bound_to 3762
    3.0658  -20.2280    8.5039 H   0  0  0  0  0  0  0  0  0  0  0  0  # atno 3841 bound_to 3832
    3.9957   -8.5352    3.9513 LP  0  0  0  0  0  0  0  0  0  0  0  0  # atno 4297 bound_to 1298
    4.8601   -9.5140    4.9319 LP  0  0  0  0  0  0  0  0  0  0  0  0  # atno 4298 bound_to 1298
    0.5545   -9.1605    8.0318 LP  0  0  0  0  0  0  0  0  0  0  0  0  # atno 4299 bound_to 2456
    2.1110   -8.6696    8.0848 LP  0  0  0  0  0  0  0  0  0  0  0  0  # atno 4300 bound_to 2456
    2.3846   -7.4537    4.8884 LP  0  0  0  0  0  0  0  0  0  0  0  0  # atno 4301 bound_to 2510
    2.8032   -9.0204    4.6970 LP  0  0  0  0  0  0  0  0  0  0  0  0  # atno 4302 bound_to 2510
   -2.8745  -17.6179   14.8152 LP  0  0  0  0  0  0  0  0  0  0  0  0  # atno 4306 bound_to 3712
   -3.5675  -16.5704   13.7717 LP  0  0  0  0  0  0  0  0  0  0  0  0  # atno 4307 bound_to 3712
    2.1445  -21.0680    9.5147 LP  0  0  0  0  0  0  0  0  0  0  0  0  # atno 4314 bound_to 3832
    1.5433  -19.7709    8.7256 LP  0  0  0  0  0  0  0  0  0  0  0  0  # atno 4315 bound_to 3832
   -5.4795  -22.4246   10.3520 LP  0  0  0  0  0  0  0  0  0  0  0  0  # atno 4318 bound_to 3762
   -4.5177  -22.1353   11.6395 LP  0  0  0  0  0  0  0  0  0  0  0  0  # atno 4319 bound_to 3762
   -4.9340   -5.4611    9.3521 LP  0  0  0  0  0  0  0  0  0  0  0  0  # atno 4320 bound_to 2467
   -5.1407   -4.9320    7.8211 LP  0  0  0  0  0  0  0  0  0  0  0  0  # atno 4321 bound_to 2467

> <Gold.Score>
     Score     S(PLP)   S(hbond)     S(cho)   S(metal)  DE(clash)   DE(tors)     intcor
     36.43     -33.86       0.86       0.00       0.00       0.00       0.89       1.77

> <Gold.PLP.Fitness>
36.4345

> <Gold.PLP.PLP>
-33.8579

> <Gold.PLP.part.hbond>
-2.0000

> <Gold.PLP.part.metal>
0.0000

> <Gold.PLP.part.buried>
-3.4417

> <Gold.PLP.part.nonpolar>
-28.6543

> <Gold.PLP.part.repulsive>
0.1362

> <Gold.PLP.ligand.clash>
0.0000

> <Gold.PLP.ligand.torsion>
0.8921

> <Gold.PLP.Chemscore.Hbond>
0.8640

> <Gold.PLP.Chemscore.CHOScore>
0.0000

> <Gold.PLP.Chemscore.Metal>
0.0000

> <Gold.Chemscore.Hbonds>
donor molecule, donor type, donor heavy atom, donor atom, acceptor molecule, acceptor atom, score
      P1  H  3712  3721       L1    16  0.86

> <Gold.PLP.Chemscore.Internal.Correction>
1.7688

