#       Name:                EN300-44899_i001
#       Creating user name   fsindt
#       Creation time:       Thu Mar  2 04:57:42 2023


#       File generated by GOLD software.
#

@<TRIPOS>MOLECULE
EN300-44899_i001|acide_1|mol2|12435|dock14
    26    27     1
SMALL
USER_CHARGES


@<TRIPOS>ATOM
      1 O1           0.7450 -15.5979  14.0117 O.co2          1 <1>               -1.0000
      2 C2           1.1502 -16.0166  12.9364 C.2            1 <1>                0.0000
      3 O3           1.8727 -17.0027  12.8970 O.co2          1 <1>                0.0000
      4 C4           0.7628 -15.3360  11.6867 C.ar           1 <1>                0.0000
      5 C5           0.9833 -15.9554  10.4537 C.ar           1 <1>                0.0000
      6 C6           0.6196 -15.3169   9.2863 C.ar           1 <1>                0.0000
      7 C7           0.0361 -14.0632   9.3307 C.ar           1 <1>                0.0000
      8 Cl8         -0.4187 -13.2680   7.8560 Cl             1 <1>                0.0000
      9 C9          -0.1880 -13.4375  10.5536 C.ar           1 <1>                0.0000
     10 C10          0.1688 -14.0723  11.7319 C.ar           1 <1>                0.0000
     11 N11         -0.7774 -12.1706  10.5929 N.pl3          1 <1>                0.0000
     12 C12         -2.1277 -11.8533  11.0817 C.3            1 <1>                0.0000
     13 C13         -2.6794 -10.6160  10.3480 C.3            1 <1>                0.0000
     14 C14         -1.4963  -9.6054  10.3558 C.3            1 <1>                0.0000
     15 S15         -0.0753 -10.7378  10.1000 S.o2           1 <1>                0.0000
     16 O16          0.9613 -10.4833  11.0382 O.2            1 <1>                0.0000
     17 O17          0.1952 -10.9205   8.7170 O.2            1 <1>                0.0000
     18 H18          1.4388 -16.9339  10.4147 H              1 <1>                0.0000
     19 H19          0.7911 -15.7972   8.3342 H              1 <1>                0.0000
     20 H20         -0.0046 -13.5887  12.6819 H              1 <1>                0.0000
     21 H21         -2.7860 -12.7033  10.9019 H              1 <1>                0.0000
     22 H22         -2.0859 -11.6500  12.1518 H              1 <1>                0.0000
     23 H23         -2.9559 -10.8713   9.3251 H              1 <1>                0.0000
     24 H24         -3.5352 -10.2053  10.8838 H              1 <1>                0.0000
     25 H25         -1.5844  -8.8899   9.5383 H              1 <1>                0.0000
     26 H26         -1.4208  -9.0953  11.3161 H              1 <1>                0.0000
@<TRIPOS>BOND
    1    1    2 ar    
    2    2    3 ar    
    3    2    4 1     
    4    4    5 ar    
    5    4   10 ar    
    6    5    6 ar    
    7    5   18 1     
    8    6    7 ar    
    9    6   19 1     
   10    7    8 1     
   11    7    9 ar    
   12    9   10 ar    
   13    9   11 1     
   14   10   20 1     
   15   11   12 1     
   16   11   15 1     
   17   12   13 1     
   18   12   21 1     
   19   12   22 1     
   20   13   14 1     
   21   13   23 1     
   22   13   24 1     
   23   14   15 1     
   24   14   25 1     
   25   14   26 1     
   26   15   16 2     
   27   15   17 2     
@<TRIPOS>SUBSTRUCTURE
      1 ****           1
@<TRIPOS>COMMENT
> <Gold.Version>
2022.2.0

> <Gold.Id.Protein>
3pbl|protein|mol2

> <Gold.Protein.RotatedTorsions>
[ 1303 1298 1297 1294 ] final  -11.37 input  179.99 | X-H torsion
[ 2461 2456 2455 2452 ] final -147.60 input   30.03 | X-H torsion
[ 2515 2510 2509 2506 ] final   23.58 input  -89.99 | X-H torsion
[ 3721 3712 3711 3710 ] final  -50.72 input -179.91 | X-H torsion
[ 3841 3832 3831 3830 ] final  113.27 input -179.91 | X-H torsion
[ 3767 3762 3761 3758 ] final  -34.48 input  -89.99 | X-H torsion
[ 2472 2467 2466 2463 ] final   13.13 input  -89.97 | X-H torsion

> <Gold.Protein.ActiveResidues>
 VAL82   VAL86   LEU89   PHE106  VAL107  ASP110  VAL111  MET112  CYS114  THR115 
 CYS181  SER182  ILE183  PHE188  VAL189  ILE190  SER192  SER193  SER196  TRP342 
 PHE345  PHE346  HIS349  VAL350  TYR365  THR369  GLY372  TYR373 

> <Gold.Protein.RotatedAtoms>
    3.3426   -9.7155    3.9561 H   0  0  0  0  0  0  0  0  0  0  0  0  # atno 1303 bound_to 1298
    0.9408   -9.2850    8.2912 H   0  0  0  0  0  0  0  0  0  0  0  0  # atno 2461 bound_to 2456
   -3.9382   -4.8344    7.9149 H   0  0  0  0  0  0  0  0  0  0  0  0  # atno 2472 bound_to 2467
    2.3764   -7.4482    4.9056 H   0  0  0  0  0  0  0  0  0  0  0  0  # atno 2515 bound_to 2510
   -2.7334  -17.4514   14.7266 H   0  0  0  0  0  0  0  0  0  0  0  0  # atno 3721 bound_to 3712
   -5.5073  -22.3016   10.4730 H   0  0  0  0  0  0  0  0  0  0  0  0  # atno 3767 bound_to 3762
    3.0433  -20.7823    9.0141 H   0  0  0  0  0  0  0  0  0  0  0  0  # atno 3841 bound_to 3832
    4.3856   -8.4835    4.2022 LP  0  0  0  0  0  0  0  0  0  0  0  0  # atno 4297 bound_to 1298
    4.6343   -9.9223    4.9334 LP  0  0  0  0  0  0  0  0  0  0  0  0  # atno 4298 bound_to 1298
    2.1458   -8.3238    7.7515 LP  0  0  0  0  0  0  0  0  0  0  0  0  # atno 4299 bound_to 2456
    0.6511   -8.1996    7.1057 LP  0  0  0  0  0  0  0  0  0  0  0  0  # atno 4300 bound_to 2456
    2.8064   -9.0074    4.6827 LP  0  0  0  0  0  0  0  0  0  0  0  0  # atno 4301 bound_to 2510
    2.1140   -8.5440    6.0871 LP  0  0  0  0  0  0  0  0  0  0  0  0  # atno 4302 bound_to 2510
   -3.5625  -16.5982   13.6484 LP  0  0  0  0  0  0  0  0  0  0  0  0  # atno 4306 bound_to 3712
   -2.8095  -17.9801   13.2125 LP  0  0  0  0  0  0  0  0  0  0  0  0  # atno 4307 bound_to 3712
    1.5124  -20.5319    9.4262 LP  0  0  0  0  0  0  0  0  0  0  0  0  # atno 4314 bound_to 3832
    2.2015  -19.6667    8.2248 LP  0  0  0  0  0  0  0  0  0  0  0  0  # atno 4315 bound_to 3832
   -4.3774  -22.2385   11.6504 LP  0  0  0  0  0  0  0  0  0  0  0  0  # atno 4318 bound_to 3762
   -4.2429  -23.3348   10.4475 LP  0  0  0  0  0  0  0  0  0  0  0  0  # atno 4319 bound_to 3762
   -4.2908   -5.4084    9.4024 LP  0  0  0  0  0  0  0  0  0  0  0  0  # atno 4320 bound_to 2467
   -5.4877   -5.1507    8.3218 LP  0  0  0  0  0  0  0  0  0  0  0  0  # atno 4321 bound_to 2467

> <Gold.Score>
     Score     S(PLP)   S(hbond)     S(cho)   S(metal)  DE(clash)   DE(tors)     intcor
     41.95     -37.03       1.98       0.00       0.00       0.00       1.40       1.80

> <Gold.PLP.Fitness>
41.9516

> <Gold.PLP.PLP>
-37.0262

> <Gold.PLP.part.hbond>
-2.0000

> <Gold.PLP.part.metal>
0.0000

> <Gold.PLP.part.buried>
4.7859

> <Gold.PLP.part.nonpolar>
-42.1264

> <Gold.PLP.part.repulsive>
0.1068

> <Gold.PLP.ligand.clash>
0.0000

> <Gold.PLP.ligand.torsion>
1.4009

> <Gold.PLP.Chemscore.Hbond>
1.9750

> <Gold.PLP.Chemscore.CHOScore>
0.0000

> <Gold.PLP.Chemscore.Metal>
0.0000

> <Gold.Chemscore.Hbonds>
donor molecule, donor type, donor heavy atom, donor atom, acceptor molecule, acceptor atom, score
      P1  H  2456  2461       L1    17  1.00
      P1  H  2305  2313       L1     1  0.98

> <Gold.PLP.Chemscore.Internal.Correction>
1.8021

