#       Name:                EN300-44899_i001
#       Creating user name   fsindt
#       Creation time:       Thu Mar  2 04:57:40 2023


#       File generated by GOLD software.
#

@<TRIPOS>MOLECULE
EN300-44899_i001|acide_1|mol2|12435|dock8
    26    27     1
SMALL
USER_CHARGES


@<TRIPOS>ATOM
      1 O1          -0.6864  -9.9042  11.4248 O.co2          1 <1>               -1.0000
      2 C2          -1.4009 -10.7738  10.9461 C.2            1 <1>                0.0000
      3 O3          -2.6141 -10.7161  11.0896 O.co2          1 <1>                0.0000
      4 C4          -0.7999 -11.8888  10.1907 C.ar           1 <1>                0.0000
      5 C5          -0.3644 -11.6918   8.8776 C.ar           1 <1>                0.0000
      6 C6           0.1977 -12.7362   8.1734 C.ar           1 <1>                0.0000
      7 C7           0.3326 -13.9808   8.7625 C.ar           1 <1>                0.0000
      8 Cl8          1.0419 -15.2889   7.8681 Cl             1 <1>                0.0000
      9 C9          -0.0978 -14.1877  10.0698 C.ar           1 <1>                0.0000
     10 C10         -0.6589 -13.1442  10.7874 C.ar           1 <1>                0.0000
     11 N11          0.0404 -15.4472  10.6602 N.pl3          1 <1>                0.0000
     12 C12         -0.3808 -16.7314  10.0804 C.3            1 <1>                0.0000
     13 C13         -0.7410 -17.7256  11.2009 C.3            1 <1>                0.0000
     14 C14          0.4156 -17.5789  12.2313 C.3            1 <1>                0.0000
     15 S15          0.7206 -15.7712  12.1505 S.o2           1 <1>                0.0000
     16 O16          2.1054 -15.4888  12.0026 O.2            1 <1>                0.0000
     17 O17         -0.0909 -15.0699  13.0825 O.2            1 <1>                0.0000
     18 H18         -0.4683 -10.7219   8.4140 H              1 <1>                0.0000
     19 H19          0.5334 -12.5820   7.1585 H              1 <1>                0.0000
     20 H20         -0.9932 -13.3025  11.8021 H              1 <1>                0.0000
     21 H21         -1.2519 -16.5725   9.4447 H              1 <1>                0.0000
     22 H22          0.4323 -17.1413   9.4814 H              1 <1>                0.0000
     23 H23         -1.6939 -17.4572  11.6569 H              1 <1>                0.0000
     24 H24         -0.7773 -18.7428  10.8108 H              1 <1>                0.0000
     25 H25          0.0957 -17.8821  13.2281 H              1 <1>                0.0000
     26 H26          1.2968 -18.1376  11.9160 H              1 <1>                0.0000
@<TRIPOS>BOND
    1    1    2 ar    
    2    2    3 ar    
    3    2    4 1     
    4    4    5 ar    
    5    4   10 ar    
    6    5    6 ar    
    7    5   18 1     
    8    6    7 ar    
    9    6   19 1     
   10    7    8 1     
   11    7    9 ar    
   12    9   10 ar    
   13    9   11 1     
   14   10   20 1     
   15   11   12 1     
   16   11   15 1     
   17   12   13 1     
   18   12   21 1     
   19   12   22 1     
   20   13   14 1     
   21   13   23 1     
   22   13   24 1     
   23   14   15 1     
   24   14   25 1     
   25   14   26 1     
   26   15   16 2     
   27   15   17 2     
@<TRIPOS>SUBSTRUCTURE
      1 ****           1
@<TRIPOS>COMMENT
> <Gold.Version>
2022.2.0

> <Gold.Id.Protein>
3pbl|protein|mol2

> <Gold.Protein.RotatedTorsions>
[ 1303 1298 1297 1294 ] final -161.61 input  179.99 | X-H torsion
[ 2461 2456 2455 2452 ] final   -6.77 input   30.03 | X-H torsion
[ 2515 2510 2509 2506 ] final   89.63 input  -89.99 | X-H torsion
[ 3721 3712 3711 3710 ] final    6.38 input -179.91 | X-H torsion
[ 3841 3832 3831 3830 ] final   85.00 input -179.91 | X-H torsion
[ 3767 3762 3761 3758 ] final  -63.94 input  -89.99 | X-H torsion
[ 2472 2467 2466 2463 ] final  -61.91 input  -89.97 | X-H torsion

> <Gold.Protein.ActiveResidues>
 VAL82   VAL86   LEU89   PHE106  VAL107  ASP110  VAL111  MET112  CYS114  THR115 
 CYS181  SER182  ILE183  PHE188  VAL189  ILE190  SER192  SER193  SER196  TRP342 
 PHE345  PHE346  HIS349  VAL350  TYR365  THR369  GLY372  TYR373 

> <Gold.Protein.RotatedAtoms>
    4.7246   -8.6646    4.5087 H   0  0  0  0  0  0  0  0  0  0  0  0  # atno 1303 bound_to 1298
    0.9372   -8.0285    7.0346 H   0  0  0  0  0  0  0  0  0  0  0  0  # atno 2461 bound_to 2456
   -3.7410   -5.1987    8.9860 H   0  0  0  0  0  0  0  0  0  0  0  0  # atno 2472 bound_to 2467
    2.0444   -7.7293    5.8361 H   0  0  0  0  0  0  0  0  0  0  0  0  # atno 2515 bound_to 2510
   -2.4761  -17.9895   14.1524 H   0  0  0  0  0  0  0  0  0  0  0  0  # atno 3721 bound_to 3712
   -5.4423  -22.0321   10.8643 H   0  0  0  0  0  0  0  0  0  0  0  0  # atno 3767 bound_to 3762
    2.7873  -20.9382    9.3122 H   0  0  0  0  0  0  0  0  0  0  0  0  # atno 3841 bound_to 3832
    4.2612  -10.2060    4.7842 LP  0  0  0  0  0  0  0  0  0  0  0  0  # atno 4297 bound_to 1298
    3.3762   -9.2510    3.7986 LP  0  0  0  0  0  0  0  0  0  0  0  0  # atno 4298 bound_to 1298
    0.6540   -9.2148    8.1208 LP  0  0  0  0  0  0  0  0  0  0  0  0  # atno 4299 bound_to 2456
    2.1465   -8.5647    7.9925 LP  0  0  0  0  0  0  0  0  0  0  0  0  # atno 4300 bound_to 2456
    2.7225   -8.0286    4.3813 LP  0  0  0  0  0  0  0  0  0  0  0  0  # atno 4301 bound_to 2510
    2.5300   -9.2415    5.4576 LP  0  0  0  0  0  0  0  0  0  0  0  0  # atno 4302 bound_to 2510
   -3.4037  -16.7372   14.5388 LP  0  0  0  0  0  0  0  0  0  0  0  0  # atno 4306 bound_to 3712
   -3.2653  -17.2199   12.9850 LP  0  0  0  0  0  0  0  0  0  0  0  0  # atno 4307 bound_to 3712
    1.3904  -20.1607    9.1693 LP  0  0  0  0  0  0  0  0  0  0  0  0  # atno 4314 bound_to 3832
    2.6191  -19.8578    8.1373 LP  0  0  0  0  0  0  0  0  0  0  0  0  # atno 4315 bound_to 3832
   -4.0612  -22.5817   11.5405 LP  0  0  0  0  0  0  0  0  0  0  0  0  # atno 4318 bound_to 3762
   -4.6242  -23.2610   10.1663 LP  0  0  0  0  0  0  0  0  0  0  0  0  # atno 4319 bound_to 3762
   -5.3639   -5.3794    8.9943 LP  0  0  0  0  0  0  0  0  0  0  0  0  # atno 4320 bound_to 2467
   -4.6119   -4.8154    7.6589 LP  0  0  0  0  0  0  0  0  0  0  0  0  # atno 4321 bound_to 2467

> <Gold.Score>
     Score     S(PLP)   S(hbond)     S(cho)   S(metal)  DE(clash)   DE(tors)     intcor
     37.09     -39.92       0.00       0.00       0.00       0.00       2.31       1.80

> <Gold.PLP.Fitness>
37.0930

> <Gold.PLP.PLP>
-39.9215

> <Gold.PLP.part.hbond>
0.0000

> <Gold.PLP.part.metal>
0.0000

> <Gold.PLP.part.buried>
-4.6145

> <Gold.PLP.part.nonpolar>
-36.2804

> <Gold.PLP.part.repulsive>
0.3384

> <Gold.PLP.ligand.clash>
0.0041

> <Gold.PLP.ligand.torsion>
2.3132

> <Gold.PLP.Chemscore.Hbond>
0.0000

> <Gold.PLP.Chemscore.CHOScore>
0.0000

> <Gold.PLP.Chemscore.Metal>
0.0000

> <Gold.PLP.Chemscore.Internal.Correction>
1.8021

