#       Name:                EN300-44899_i001
#       Creating user name   fsindt
#       Creation time:       Thu Mar  2 04:57:41 2023


#       File generated by GOLD software.
#

@<TRIPOS>MOLECULE
EN300-44899_i001|acide_1|mol2|12435|dock10
    26    27     1
SMALL
USER_CHARGES


@<TRIPOS>ATOM
      1 O1           0.3670 -16.9275  11.8678 O.co2          1 <1>               -1.0000
      2 C2           0.3175 -15.7350  12.1346 C.2            1 <1>                0.0000
      3 O3           0.3583 -15.3669  13.3002 O.co2          1 <1>                0.0000
      4 C4           0.2145 -14.7405  11.0504 C.ar           1 <1>                0.0000
      5 C5           1.0319 -14.8464   9.9220 C.ar           1 <1>                0.0000
      6 C6           0.9334 -13.9152   8.9091 C.ar           1 <1>                0.0000
      7 C7           0.0268 -12.8745   9.0055 C.ar           1 <1>                0.0000
      8 Cl8         -0.0901 -11.7078   7.7252 Cl             1 <1>                0.0000
      9 C9          -0.7920 -12.7599  10.1251 C.ar           1 <1>                0.0000
     10 C10         -0.7046 -13.6926  11.1454 C.ar           1 <1>                0.0000
     11 N11         -1.7060 -11.7062  10.2178 N.pl3          1 <1>                0.0000
     12 C12         -3.1720 -11.8209  10.1956 C.3            1 <1>                0.0000
     13 C13         -3.7945 -10.5401   9.6075 C.3            1 <1>                0.0000
     14 C14         -3.0272  -9.3826  10.3094 C.3            1 <1>                0.0000
     15 S15         -1.3341 -10.0864  10.3811 S.o2           1 <1>                0.0000
     16 O16         -0.7771  -9.9565  11.6820 O.2            1 <1>                0.0000
     17 O17         -0.5920  -9.7626   9.2134 O.2            1 <1>                0.0000
     18 H18          1.7411 -15.6572   9.8431 H              1 <1>                0.0000
     19 H19          1.5663 -13.9986   8.0379 H              1 <1>                0.0000
     20 H20         -1.3394 -13.6058  12.0148 H              1 <1>                0.0000
     21 H21         -3.4583 -12.6759   9.5831 H              1 <1>                0.0000
     22 H22         -3.5383 -11.9669  11.2117 H              1 <1>                0.0000
     23 H23         -3.6396 -10.5014   8.5293 H              1 <1>                0.0000
     24 H24         -4.8577 -10.4904   9.8427 H              1 <1>                0.0000
     25 H25         -3.0527  -8.4729   9.7097 H              1 <1>                0.0000
     26 H26         -3.4175  -9.2023  11.3111 H              1 <1>                0.0000
@<TRIPOS>BOND
    1    1    2 ar    
    2    2    3 ar    
    3    2    4 1     
    4    4    5 ar    
    5    4   10 ar    
    6    5    6 ar    
    7    5   18 1     
    8    6    7 ar    
    9    6   19 1     
   10    7    8 1     
   11    7    9 ar    
   12    9   10 ar    
   13    9   11 1     
   14   10   20 1     
   15   11   12 1     
   16   11   15 1     
   17   12   13 1     
   18   12   21 1     
   19   12   22 1     
   20   13   14 1     
   21   13   23 1     
   22   13   24 1     
   23   14   15 1     
   24   14   25 1     
   25   14   26 1     
   26   15   16 2     
   27   15   17 2     
@<TRIPOS>SUBSTRUCTURE
      1 ****           1
@<TRIPOS>COMMENT
> <Gold.Version>
2022.2.0

> <Gold.Id.Protein>
3pbl|protein|mol2

> <Gold.Protein.RotatedTorsions>
[ 1303 1298 1297 1294 ] final    6.50 input  179.99 | X-H torsion
[ 2461 2456 2455 2452 ] final -123.07 input   30.03 | X-H torsion
[ 2515 2510 2509 2506 ] final -122.41 input  -89.99 | X-H torsion
[ 3721 3712 3711 3710 ] final -144.75 input -179.91 | X-H torsion
[ 3841 3832 3831 3830 ] final  -42.12 input -179.91 | X-H torsion
[ 3767 3762 3761 3758 ] final -120.84 input  -89.99 | X-H torsion
[ 2472 2467 2466 2463 ] final  -42.29 input  -89.97 | X-H torsion

> <Gold.Protein.ActiveResidues>
 VAL82   VAL86   LEU89   PHE106  VAL107  ASP110  VAL111  MET112  CYS114  THR115 
 CYS181  SER182  ILE183  PHE188  VAL189  ILE190  SER192  SER193  SER196  TRP342 
 PHE345  PHE346  HIS349  VAL350  TYR365  THR369  GLY372  TYR373 

> <Gold.Protein.RotatedAtoms>
    3.4242   -9.9539    4.1054 H   0  0  0  0  0  0  0  0  0  0  0  0  # atno 1303 bound_to 1298
    0.6100   -9.1937    8.0845 H   0  0  0  0  0  0  0  0  0  0  0  0  # atno 2461 bound_to 2456
   -3.6435   -5.0855    8.7016 H   0  0  0  0  0  0  0  0  0  0  0  0  # atno 2472 bound_to 2467
    2.7023   -9.2161    5.0367 H   0  0  0  0  0  0  0  0  0  0  0  0  # atno 2515 bound_to 2510
   -3.3148  -16.5390   14.0667 H   0  0  0  0  0  0  0  0  0  0  0  0  # atno 3721 bound_to 3712
   -4.8370  -21.9725   11.5256 H   0  0  0  0  0  0  0  0  0  0  0  0  # atno 3767 bound_to 3762
    1.5624  -19.9922    9.2237 H   0  0  0  0  0  0  0  0  0  0  0  0  # atno 3841 bound_to 3832
    4.1440   -8.4898    4.0368 LP  0  0  0  0  0  0  0  0  0  0  0  0  # atno 4297 bound_to 1298
    4.7943   -9.6774    4.9496 LP  0  0  0  0  0  0  0  0  0  0  0  0  # atno 4298 bound_to 1298
    2.1341   -8.6090    8.0323 LP  0  0  0  0  0  0  0  0  0  0  0  0  # atno 4299 bound_to 2456
    0.9935   -8.0057    7.0315 LP  0  0  0  0  0  0  0  0  0  0  0  0  # atno 4300 bound_to 2456
    2.0373   -8.1280    6.0563 LP  0  0  0  0  0  0  0  0  0  0  0  0  # atno 4301 bound_to 2510
    2.5570   -7.6546    4.5824 LP  0  0  0  0  0  0  0  0  0  0  0  0  # atno 4302 bound_to 2510
   -2.9847  -17.7052   13.0137 LP  0  0  0  0  0  0  0  0  0  0  0  0  # atno 4306 bound_to 3712
   -2.7160  -17.9265   14.6091 LP  0  0  0  0  0  0  0  0  0  0  0  0  # atno 4307 bound_to 3712
    2.7522  -19.9605    8.1469 LP  0  0  0  0  0  0  0  0  0  0  0  0  # atno 4314 bound_to 3832
    2.6724  -21.1508    9.2620 LP  0  0  0  0  0  0  0  0  0  0  0  0  # atno 4315 bound_to 3832
   -3.9595  -23.1956   10.8926 LP  0  0  0  0  0  0  0  0  0  0  0  0  # atno 4318 bound_to 3762
   -5.3309  -22.7068   10.1531 LP  0  0  0  0  0  0  0  0  0  0  0  0  # atno 4319 bound_to 3762
   -5.1490   -5.4391    9.2256 LP  0  0  0  0  0  0  0  0  0  0  0  0  # atno 4320 bound_to 2467
   -4.9242   -4.8689    7.7120 LP  0  0  0  0  0  0  0  0  0  0  0  0  # atno 4321 bound_to 2467

> <Gold.Score>
     Score     S(PLP)   S(hbond)     S(cho)   S(metal)  DE(clash)   DE(tors)     intcor
     45.09     -45.12       0.75       0.00       0.00       0.00       2.04       1.80

> <Gold.PLP.Fitness>
45.0936

> <Gold.PLP.PLP>
-45.1232

> <Gold.PLP.part.hbond>
-0.9147

> <Gold.PLP.part.metal>
0.0000

> <Gold.PLP.part.buried>
2.1664

> <Gold.PLP.part.nonpolar>
-47.4064

> <Gold.PLP.part.repulsive>
0.2779

> <Gold.PLP.ligand.clash>
0.0000

> <Gold.PLP.ligand.torsion>
2.0439

> <Gold.PLP.Chemscore.Hbond>
0.7520

> <Gold.PLP.Chemscore.CHOScore>
0.0000

> <Gold.PLP.Chemscore.Metal>
0.0000

> <Gold.Chemscore.Hbonds>
donor molecule, donor type, donor heavy atom, donor atom, acceptor molecule, acceptor atom, score
      P1  H  2456  2461       L1    17  0.75

> <Gold.PLP.Chemscore.Internal.Correction>
1.8021

