#       Name:                plp ligand
#       Creating user name   fsindt
#       Creation time:       Thu Mar  2 04:57:38 2023


#       File generated by GOLD software.
#

@<TRIPOS>MOLECULE
plp ligand
    26    27     1
SMALL
USER_CHARGES


@<TRIPOS>ATOM
      1 O1          -5.0780   0.2671  -0.5666 ACCEPTOR       1 <1>               -1.0000
      2 C2          -3.9563   0.7275  -0.4070 NONPOLAR       1 <1>                0.0000
      3 O3          -3.8012   1.9356  -0.2961 ACCEPTOR       1 <1>                0.0000
      4 C4          -2.7913  -0.1745  -0.3422 NONPOLAR       1 <1>                0.0000
      5 C5          -2.9664  -1.5556  -0.4629 NONPOLAR       1 <1>                0.0000
      6 C6          -1.8751  -2.3971  -0.4024 NONPOLAR       1 <1>                0.0000
      7 C7          -0.6050  -1.8788  -0.2224 NONPOLAR       1 <1>                0.0000
      8 Cl8          0.7623  -2.9460  -0.1481 NONPOLAR       1 <1>                0.0000
      9 C9          -0.4196  -0.5047  -0.1011 NONPOLAR       1 <1>                0.0000
     10 C10         -1.5082   0.3493  -0.1657 NONPOLAR       1 <1>                0.0000
     11 N11          0.8657   0.0138   0.0811 NONPOLAR       1 <1>                0.0000
     12 C12          1.4959   0.3468   1.3675 NONPOLAR       1 <1>                0.0000
     13 C13          2.5116   1.4899   1.1795 NONPOLAR       1 <1>                0.0000
     14 C14          3.3074   1.0908  -0.0967 NONPOLAR       1 <1>                0.0000
     15 S15          1.9708   0.3624  -1.1214 NONPOLAR       1 <1>                0.0000
     16 O16          2.3584  -0.8967  -1.6541 ACCEPTOR       1 <1>                0.0000
     17 O17          1.3389   1.3515  -1.9224 ACCEPTOR       1 <1>                0.0000
     18 H18         -3.9563  -1.9642  -0.6032                1 <1>                0.0000
     19 H19         -2.0126  -3.4643  -0.4956                1 <1>                0.0000
     20 H20         -1.3665   1.4159  -0.0722                1 <1>                0.0000
     21 H21          0.7283   0.6585   2.0759                1 <1>                0.0000
     22 H22          2.0094  -0.5324   1.7565                1 <1>                0.0000
     23 H23          1.9951   2.4373   1.0258                1 <1>                0.0000
     24 H24          3.1778   1.5532   2.0399                1 <1>                0.0000
     25 H25          3.7433   1.9659  -0.5785                1 <1>                0.0000
     26 H26          4.0719   0.3484   0.1324                1 <1>                0.0000
@<TRIPOS>BOND
    1    1    2 ar    
    2    2    3 ar    
    3    2    4 1     
    4    4    5 ar    
    5    4   10 ar    
    6    5    6 ar    
    7    5   18 1     
    8    6    7 ar    
    9    6   19 1     
   10    7    8 1     
   11    7    9 ar    
   12    9   10 ar    
   13    9   11 1     
   14   10   20 1     
   15   11   12 1     
   16   11   15 1     
   17   12   13 1     
   18   12   21 1     
   19   12   22 1     
   20   13   14 1     
   21   13   23 1     
   22   13   24 1     
   23   14   15 1     
   24   14   25 1     
   25   14   26 1     
   26   15   16 2     
   27   15   17 2     
@<TRIPOS>SUBSTRUCTURE
      1 ****           1
@<TRIPOS>SET
DONOR_HYDROGENS      STATIC     ATOMS    <user>   **** ""
0
ATOM$RED        STATIC     ATOMS    COLORGROUP SYSTEM
0
