#       Name:                EN300-251348_i003
#       Creating user name   fsindt
#       Creation time:       Mon Feb 27 22:45:19 2023


#       File generated by GOLD software.
#

@<TRIPOS>MOLECULE
EN300-251348_i003|amine_3|mol2|1113|dock2
    28    29     1
SMALL
USER_CHARGES


@<TRIPOS>ATOM
      1 C1          -0.7004 -18.5951   8.5564 C.3            1 <1>                0.0000
      2 O2          -0.7350 -17.8674   9.8124 O.3            1 <1>                0.0000
      3 C3          -0.3011 -18.5159  10.9046 C.2            1 <1>                0.0000
      4 O4           0.2001 -19.6101  10.7982 O.2            1 <1>                0.0000
      5 C5          -0.4390 -17.8791  12.2635 C.3            1 <1>                0.0000
      6 C6           0.1943 -18.7878  13.3218 C.3            1 <1>                0.0000
      7 C7           1.3455 -18.0320  13.9938 C.3            1 <1>                0.0000
      8 C8           0.7860 -16.7915  14.6983 C.3            1 <1>                0.0000
      9 C9           0.1421 -15.8796  13.6495 C.3            1 <1>                0.0000
     10 C10          0.2791 -16.5281  12.2708 C.3            1 <1>                0.0000
     11 N11          1.6954 -16.7161  11.9456 N.4            1 <1>                1.0000
     12 C12          2.3464 -17.5905  12.9245 C.3            1 <1>                0.0000
     13 H13         -1.0771 -17.9575   7.7566 H              1 <1>                0.0000
     14 H14          0.3258 -18.8883   8.3346 H              1 <1>                0.0000
     15 H15         -1.3238 -19.4857   8.6352 H              1 <1>                0.0000
     16 H16         -1.4946 -17.7335  12.4924 H              1 <1>                0.0000
     17 H17         -0.5531 -19.0549  14.0689 H              1 <1>                0.0000
     18 H18          0.5779 -19.6905  12.8463 H              1 <1>                0.0000
     19 H19          1.8331 -18.6792  14.7228 H              1 <1>                0.0000
     20 H20          0.0365 -17.0934  15.4298 H              1 <1>                0.0000
     21 H21          1.5949 -16.2590  15.1985 H              1 <1>                0.0000
     22 H22         -0.9134 -15.7424  13.8845 H              1 <1>                0.0000
     23 H23          0.6451 -14.9126  13.6491 H              1 <1>                0.0000
     24 H24         -0.1699 -15.8773  11.5205 H              1 <1>                0.0000
     25 H25          3.1671 -17.0526  13.3990 H              1 <1>                0.0000
     26 H26          2.7417 -18.4698  12.4158 H              1 <1>                0.0000
     27 H27          1.7729 -17.1296  11.0285 H              1 <1>                0.0000
     28 H28          2.1571 -15.8189  11.9438 H              1 <1>                0.0000
@<TRIPOS>BOND
    1    1    2 1     
    2    1   13 1     
    3    1   14 1     
    4    1   15 1     
    5    2    3 1     
    6    3    4 2     
    7    3    5 1     
    8    5    6 1     
    9    5   10 1     
   10    5   16 1     
   11    6    7 1     
   12    6   17 1     
   13    6   18 1     
   14    7    8 1     
   15    7   12 1     
   16    7   19 1     
   17    8    9 1     
   18    8   20 1     
   19    8   21 1     
   20    9   10 1     
   21    9   22 1     
   22    9   23 1     
   23   10   11 1     
   24   10   24 1     
   25   11   12 1     
   26   11   27 1     
   27   11   28 1     
   28   12   25 1     
   29   12   26 1     
@<TRIPOS>SUBSTRUCTURE
      1 ****           1
@<TRIPOS>SET
DONOR_HYDROGENS      STATIC     ATOMS    <user>   **** ""
2 27 28
ATOM$RED        STATIC     ATOMS    COLORGROUP SYSTEM
2 27 28
@<TRIPOS>COMMENT
> <Gold.Version>
2022.2.0

> <Gold.Id.Protein>
3pbl|protein|mol2

> <Gold.Protein.RotatedTorsions>
[ 1303 1298 1297 1294 ] final  -54.23 input  179.99 | X-H torsion
[ 2461 2456 2455 2452 ] final   77.97 input   30.03 | X-H torsion
[ 2515 2510 2509 2506 ] final -108.18 input  -89.99 | X-H torsion
[ 3721 3712 3711 3710 ] final   16.61 input -179.91 | X-H torsion
[ 3841 3832 3831 3830 ] final  -24.56 input -179.91 | X-H torsion
[ 3767 3762 3761 3758 ] final  -71.43 input  -89.99 | X-H torsion
[ 2472 2467 2466 2463 ] final -171.56 input  -89.97 | X-H torsion

> <Gold.Protein.ActiveResidues>
 VAL82   VAL86   LEU89   PHE106  VAL107  ASP110  VAL111  MET112  CYS114  THR115 
 CYS181  SER182  ILE183  PHE188  VAL189  ILE190  SER192  SER193  SER196  TRP342 
 PHE345  PHE346  HIS349  VAL350  TYR365  THR369  GLY372  TYR373 

> <Gold.Protein.RotatedAtoms>
    3.4526   -9.0593    3.7780 H   0  0  0  0  0  0  0  0  0  0  0  0  # atno 1303 bound_to 1298
    2.0759   -8.1762    7.5797 H   0  0  0  0  0  0  0  0  0  0  0  0  # atno 2461 bound_to 2456
   -5.2606   -5.4158    9.1244 H   0  0  0  0  0  0  0  0  0  0  0  0  # atno 2472 bound_to 2467
    2.7677   -9.1219    4.8334 H   0  0  0  0  0  0  0  0  0  0  0  0  # atno 2515 bound_to 2510
   -2.4699  -18.0237   14.0018 H   0  0  0  0  0  0  0  0  0  0  0  0  # atno 3721 bound_to 3712
   -5.3937  -21.9860   10.9676 H   0  0  0  0  0  0  0  0  0  0  0  0  # atno 3767 bound_to 3762
    1.5862  -20.1955    9.3910 H   0  0  0  0  0  0  0  0  0  0  0  0  # atno 3841 bound_to 3832
    4.8221   -8.8023    4.6293 LP  0  0  0  0  0  0  0  0  0  0  0  0  # atno 4297 bound_to 1298
    4.0877  -10.2598    4.6845 LP  0  0  0  0  0  0  0  0  0  0  0  0  # atno 4298 bound_to 1298
    0.4965   -8.3506    7.2026 LP  0  0  0  0  0  0  0  0  0  0  0  0  # atno 4299 bound_to 2456
    1.1656   -9.2812    8.3658 LP  0  0  0  0  0  0  0  0  0  0  0  0  # atno 4300 bound_to 2456
    2.0700   -8.3558    6.0952 LP  0  0  0  0  0  0  0  0  0  0  0  0  # atno 4301 bound_to 2510
    2.4589   -7.5210    4.7468 LP  0  0  0  0  0  0  0  0  0  0  0  0  # atno 4302 bound_to 2510
   -3.3344  -16.8398   14.6566 LP  0  0  0  0  0  0  0  0  0  0  0  0  # atno 4306 bound_to 3712
   -3.3417  -17.0778   13.0411 LP  0  0  0  0  0  0  0  0  0  0  0  0  # atno 4307 bound_to 3712
    2.5131  -19.7922    8.1442 LP  0  0  0  0  0  0  0  0  0  0  0  0  # atno 4314 bound_to 3832
    2.8840  -21.0842    9.0714 LP  0  0  0  0  0  0  0  0  0  0  0  0  # atno 4315 bound_to 3832
   -4.0051  -22.6745   11.4821 LP  0  0  0  0  0  0  0  0  0  0  0  0  # atno 4318 bound_to 3762
   -4.7288  -23.2143   10.1214 LP  0  0  0  0  0  0  0  0  0  0  0  0  # atno 4319 bound_to 3762
   -4.7797   -4.8394    7.6742 LP  0  0  0  0  0  0  0  0  0  0  0  0  # atno 4320 bound_to 2467
   -3.6767   -5.1384    8.8406 LP  0  0  0  0  0  0  0  0  0  0  0  0  # atno 4321 bound_to 2467

> <Gold.Score>
     Score     S(PLP)   S(hbond)     S(cho)   S(metal)  DE(clash)   DE(tors)     intcor
     41.39     -32.50       3.00       0.00       0.00       0.00       0.06       0.00

> <Gold.PLP.Fitness>
41.3863

> <Gold.PLP.PLP>
-32.4989

> <Gold.PLP.part.hbond>
-2.0000

> <Gold.PLP.part.metal>
0.0000

> <Gold.PLP.part.buried>
-3.9492

> <Gold.PLP.part.nonpolar>
-27.9001

> <Gold.PLP.part.repulsive>
0.1986

> <Gold.PLP.ligand.clash>
0.0000

> <Gold.PLP.ligand.torsion>
0.0565

> <Gold.PLP.Chemscore.Hbond>
3.0000

> <Gold.PLP.Chemscore.CHOScore>
0.0000

> <Gold.PLP.Chemscore.Metal>
0.0000

> <Gold.Chemscore.Hbonds>
donor molecule, donor type, donor heavy atom, donor atom, acceptor molecule, acceptor atom, score
      L1  H    11    27       P1  1227  2.00
      P1  H  3832  3841       L1     4  1.00

> <Gold.PLP.Chemscore.Internal.Correction>
0.0004

