#       Name:                EN300-251348_i003
#       Creating user name   fsindt
#       Creation time:       Mon Feb 27 22:45:26 2023


#       File generated by GOLD software.
#

@<TRIPOS>MOLECULE
EN300-251348_i003|amine_3|mol2|1113|dock16
    28    29     1
SMALL
USER_CHARGES


@<TRIPOS>ATOM
      1 C1           1.2322 -21.8581  14.0185 C.3            1 <1>                0.0000
      2 O2           0.8640 -20.4685  14.2233 O.3            1 <1>                0.0000
      3 C3           0.0441 -19.9153  13.3160 C.2            1 <1>                0.0000
      4 O4          -0.4337 -20.5955  12.4391 O.2            1 <1>                0.0000
      5 C5          -0.2807 -18.4456  13.3909 C.3            1 <1>                0.0000
      6 C6           0.3850 -17.8362  14.6289 C.3            1 <1>                0.0000
      7 C7           1.3708 -16.7545  14.1749 C.3            1 <1>                0.0000
      8 C8           0.5992 -15.6466  13.4499 C.3            1 <1>                0.0000
      9 C9          -0.0780 -16.2475  12.2145 C.3            1 <1>                0.0000
     10 C10          0.2489 -17.7401  12.1408 C.3            1 <1>                0.0000
     11 N11          1.6983 -17.9297  12.0393 N.4            1 <1>                1.0000
     12 C12          2.3830 -17.3729  13.2089 C.3            1 <1>                0.0000
     13 H13          1.8961 -22.1801  14.8207 H              1 <1>                0.0000
     14 H14          0.3341 -22.4759  14.0200 H              1 <1>                0.0000
     15 H15          1.7426 -21.9614  13.0610 H              1 <1>                0.0000
     16 H16         -1.3607 -18.3137  13.4556 H              1 <1>                0.0000
     17 H17         -0.3752 -17.3918  15.2712 H              1 <1>                0.0000
     18 H18          0.9203 -18.6125  15.1755 H              1 <1>                0.0000
     19 H19          1.8829 -16.3376  15.0422 H              1 <1>                0.0000
     20 H20         -0.1572 -15.2318  14.1160 H              1 <1>                0.0000
     21 H21          1.2896 -14.8611  13.1426 H              1 <1>                0.0000
     22 H22         -1.1573 -16.1140  12.2893 H              1 <1>                0.0000
     23 H23          0.2906 -15.7489  11.3180 H              1 <1>                0.0000
     24 H24         -0.2239 -18.1692  11.2573 H              1 <1>                0.0000
     25 H25          3.0862 -16.6062  12.8839 H              1 <1>                0.0000
     26 H26          2.9293 -18.1666  13.7185 H              1 <1>                0.0000
     27 H27          1.8999 -18.9163  11.9757 H              1 <1>                0.0000
     28 H28          2.0355 -17.4690  11.2073 H              1 <1>                0.0000
@<TRIPOS>BOND
    1    1    2 1     
    2    1   13 1     
    3    1   14 1     
    4    1   15 1     
    5    2    3 1     
    6    3    4 2     
    7    3    5 1     
    8    5    6 1     
    9    5   10 1     
   10    5   16 1     
   11    6    7 1     
   12    6   17 1     
   13    6   18 1     
   14    7    8 1     
   15    7   12 1     
   16    7   19 1     
   17    8    9 1     
   18    8   20 1     
   19    8   21 1     
   20    9   10 1     
   21    9   22 1     
   22    9   23 1     
   23   10   11 1     
   24   10   24 1     
   25   11   12 1     
   26   11   27 1     
   27   11   28 1     
   28   12   25 1     
   29   12   26 1     
@<TRIPOS>SUBSTRUCTURE
      1 ****           1
@<TRIPOS>SET
DONOR_HYDROGENS      STATIC     ATOMS    <user>   **** ""
2 27 28
ATOM$RED        STATIC     ATOMS    COLORGROUP SYSTEM
2 27 28
@<TRIPOS>COMMENT
> <Gold.Version>
2022.2.0

> <Gold.Id.Protein>
3pbl|protein|mol2

> <Gold.Protein.RotatedTorsions>
[ 1303 1298 1297 1294 ] final  158.31 input  179.99 | X-H torsion
[ 2461 2456 2455 2452 ] final  122.03 input   30.03 | X-H torsion
[ 2515 2510 2509 2506 ] final  171.02 input  -89.99 | X-H torsion
[ 3721 3712 3711 3710 ] final  -86.48 input -179.91 | X-H torsion
[ 3841 3832 3831 3830 ] final  178.06 input -179.91 | X-H torsion
[ 3767 3762 3761 3758 ] final   11.18 input  -89.99 | X-H torsion
[ 2472 2467 2466 2463 ] final -167.69 input  -89.97 | X-H torsion

> <Gold.Protein.ActiveResidues>
 VAL82   VAL86   LEU89   PHE106  VAL107  ASP110  VAL111  MET112  CYS114  THR115 
 CYS181  SER182  ILE183  PHE188  VAL189  ILE190  SER192  SER193  SER196  TRP342 
 PHE345  PHE346  HIS349  VAL350  TYR365  THR369  GLY372  TYR373 

> <Gold.Protein.RotatedAtoms>
    4.9116   -9.1861    4.8411 H   0  0  0  0  0  0  0  0  0  0  0  0  # atno 1303 bound_to 1298
    2.1111   -8.6699    8.0853 H   0  0  0  0  0  0  0  0  0  0  0  0  # atno 2461 bound_to 2456
   -5.2161   -5.4268    9.1685 H   0  0  0  0  0  0  0  0  0  0  0  0  # atno 2472 bound_to 2467
    2.2644   -8.9349    5.9307 H   0  0  0  0  0  0  0  0  0  0  0  0  # atno 2515 bound_to 2510
   -2.9990  -16.9911   14.7049 H   0  0  0  0  0  0  0  0  0  0  0  0  # atno 3721 bound_to 3712
   -5.2114  -22.8516   10.0918 H   0  0  0  0  0  0  0  0  0  0  0  0  # atno 3767 bound_to 3762
    2.9742  -20.0722    8.4212 H   0  0  0  0  0  0  0  0  0  0  0  0  # atno 3841 bound_to 3832
    3.7268  -10.2284    4.4215 LP  0  0  0  0  0  0  0  0  0  0  0  0  # atno 4297 bound_to 1298
    3.7235   -8.7068    3.8288 LP  0  0  0  0  0  0  0  0  0  0  0  0  # atno 4298 bound_to 1298
    1.0728   -7.9780    7.0315 LP  0  0  0  0  0  0  0  0  0  0  0  0  # atno 4299 bound_to 2456
    0.5542   -9.1602    8.0315 LP  0  0  0  0  0  0  0  0  0  0  0  0  # atno 4300 bound_to 2456
    2.1983   -7.4241    5.3150 LP  0  0  0  0  0  0  0  0  0  0  0  0  # atno 4301 bound_to 2510
    2.8341   -8.6399    4.4293 LP  0  0  0  0  0  0  0  0  0  0  0  0  # atno 4302 bound_to 2510
   -3.4324  -16.9009   13.1615 LP  0  0  0  0  0  0  0  0  0  0  0  0  # atno 4306 bound_to 3712
   -2.6329  -18.2088   13.7245 LP  0  0  0  0  0  0  0  0  0  0  0  0  # atno 4307 bound_to 3712
    2.3441  -21.1322    9.4486 LP  0  0  0  0  0  0  0  0  0  0  0  0  # atno 4314 bound_to 3832
    1.4496  -19.8866    8.8873 LP  0  0  0  0  0  0  0  0  0  0  0  0  # atno 4315 bound_to 3832
   -4.9996  -21.9286   11.4222 LP  0  0  0  0  0  0  0  0  0  0  0  0  # atno 4318 bound_to 3762
   -3.9166  -23.0949   11.0568 LP  0  0  0  0  0  0  0  0  0  0  0  0  # atno 4319 bound_to 3762
   -4.8410   -4.8509    7.6873 LP  0  0  0  0  0  0  0  0  0  0  0  0  # atno 4320 bound_to 2467
   -3.6600   -5.1160    8.7834 LP  0  0  0  0  0  0  0  0  0  0  0  0  # atno 4321 bound_to 2467

> <Gold.Score>
     Score     S(PLP)   S(hbond)     S(cho)   S(metal)  DE(clash)   DE(tors)     intcor
     34.37     -28.48       2.00       0.00       0.00       0.00       0.05       0.00

> <Gold.PLP.Fitness>
34.3729

> <Gold.PLP.PLP>
-28.4824

> <Gold.PLP.part.hbond>
-1.0000

> <Gold.PLP.part.metal>
0.0000

> <Gold.PLP.part.buried>
-2.7293

> <Gold.PLP.part.nonpolar>
-24.5410

> <Gold.PLP.part.repulsive>
0.0139

> <Gold.PLP.ligand.clash>
0.0000

> <Gold.PLP.ligand.torsion>
0.0549

> <Gold.PLP.Chemscore.Hbond>
2.0000

> <Gold.PLP.Chemscore.CHOScore>
0.0000

> <Gold.PLP.Chemscore.Metal>
0.0000

> <Gold.Chemscore.Hbonds>
donor molecule, donor type, donor heavy atom, donor atom, acceptor molecule, acceptor atom, score
      L1  H    11    28       P1  1227  2.00

> <Gold.PLP.Chemscore.Internal.Correction>
0.0002

