#       Name:                EN300-251348_i003
#       Creating user name   fsindt
#       Creation time:       Mon Feb 27 22:45:24 2023


#       File generated by GOLD software.
#

@<TRIPOS>MOLECULE
EN300-251348_i003|amine_3|mol2|1113|dock12
    28    29     1
SMALL
USER_CHARGES


@<TRIPOS>ATOM
      1 C1           0.4054 -15.3004  11.9083 C.3            1 <1>                0.0000
      2 O2          -0.6742 -14.3350  12.0124 O.3            1 <1>                0.0000
      3 C3          -0.7005 -13.3496  11.1014 C.2            1 <1>                0.0000
      4 O4           0.1364 -13.3091  10.2309 O.2            1 <1>                0.0000
      5 C5          -1.7739 -12.2937  11.1643 C.3            1 <1>                0.0000
      6 C6          -1.1310 -10.9225  11.3949 C.3            1 <1>                0.0000
      7 C7          -1.4618 -10.0175  10.2034 C.3            1 <1>                0.0000
      8 C8          -2.9805  -9.8289  10.1246 C.3            1 <1>                0.0000
      9 C9          -3.6343 -11.1962   9.9028 C.3            1 <1>                0.0000
     10 C10         -2.5445 -12.2681   9.8427 C.3            1 <1>                0.0000
     11 N11         -1.6258 -11.9851   8.7369 N.4            1 <1>                1.0000
     12 C12         -0.9737 -10.6855   8.9166 C.3            1 <1>                0.0000
     13 H13          0.3088 -16.0406  12.7026 H              1 <1>                0.0000
     14 H14          0.3554 -15.7982  10.9398 H              1 <1>                0.0000
     15 H15          1.3622 -14.7873  12.0042 H              1 <1>                0.0000
     16 H16         -2.4583 -12.5178  11.9824 H              1 <1>                0.0000
     17 H17         -1.5276 -10.4821  12.3097 H              1 <1>                0.0000
     18 H18         -0.0502 -11.0351  11.4795 H              1 <1>                0.0000
     19 H19         -0.9781  -9.0493  10.3328 H              1 <1>                0.0000
     20 H20         -3.3441  -9.3968  11.0568 H              1 <1>                0.0000
     21 H21         -3.2242  -9.1679   9.2928 H              1 <1>                0.0000
     22 H22         -4.3139 -11.4132  10.7269 H              1 <1>                0.0000
     23 H23         -4.1888 -11.1871   8.9644 H              1 <1>                0.0000
     24 H24         -3.0057 -13.2416   9.6756 H              1 <1>                0.0000
     25 H25         -1.2071 -10.0443   8.0667 H              1 <1>                0.0000
     26 H26          0.1055 -10.8281   8.9714 H              1 <1>                0.0000
     27 H27         -0.9216 -12.7068   8.6980 H              1 <1>                0.0000
     28 H28         -2.1421 -11.9800   7.8699 H              1 <1>                0.0000
@<TRIPOS>BOND
    1    1    2 1     
    2    1   13 1     
    3    1   14 1     
    4    1   15 1     
    5    2    3 1     
    6    3    4 2     
    7    3    5 1     
    8    5    6 1     
    9    5   10 1     
   10    5   16 1     
   11    6    7 1     
   12    6   17 1     
   13    6   18 1     
   14    7    8 1     
   15    7   12 1     
   16    7   19 1     
   17    8    9 1     
   18    8   20 1     
   19    8   21 1     
   20    9   10 1     
   21    9   22 1     
   22    9   23 1     
   23   10   11 1     
   24   10   24 1     
   25   11   12 1     
   26   11   27 1     
   27   11   28 1     
   28   12   25 1     
   29   12   26 1     
@<TRIPOS>SUBSTRUCTURE
      1 ****           1
@<TRIPOS>SET
DONOR_HYDROGENS      STATIC     ATOMS    <user>   **** ""
2 27 28
ATOM$RED        STATIC     ATOMS    COLORGROUP SYSTEM
2 27 28
@<TRIPOS>COMMENT
> <Gold.Version>
2022.2.0

> <Gold.Id.Protein>
3pbl|protein|mol2

> <Gold.Protein.RotatedTorsions>
[ 1303 1298 1297 1294 ] final  -89.32 input  179.99 | X-H torsion
[ 2461 2456 2455 2452 ] final   26.33 input   30.03 | X-H torsion
[ 2515 2510 2509 2506 ] final  155.78 input  -89.99 | X-H torsion
[ 3721 3712 3711 3710 ] final   22.87 input -179.91 | X-H torsion
[ 3841 3832 3831 3830 ] final  -50.15 input -179.91 | X-H torsion
[ 3767 3762 3761 3758 ] final  167.34 input  -89.99 | X-H torsion
[ 2472 2467 2466 2463 ] final -132.20 input  -89.97 | X-H torsion

> <Gold.Protein.ActiveResidues>
 VAL82   VAL86   LEU89   PHE106  VAL107  ASP110  VAL111  MET112  CYS114  THR115 
 CYS181  SER182  ILE183  PHE188  VAL189  ILE190  SER192  SER193  SER196  TRP342 
 PHE345  PHE346  HIS349  VAL350  TYR365  THR369  GLY372  TYR373 

> <Gold.Protein.RotatedAtoms>
    3.8178   -8.6328    3.8662 H   0  0  0  0  0  0  0  0  0  0  0  0  # atno 1303 bound_to 1298
    1.4580   -7.9166    7.1047 H   0  0  0  0  0  0  0  0  0  0  0  0  # atno 2461 bound_to 2456
   -4.7006   -5.4608    9.4203 H   0  0  0  0  0  0  0  0  0  0  0  0  # atno 2472 bound_to 2467
    2.1739   -8.7293    6.0402 H   0  0  0  0  0  0  0  0  0  0  0  0  # atno 2515 bound_to 2510
   -2.4729  -18.0331   13.9077 H   0  0  0  0  0  0  0  0  0  0  0  0  # atno 3721 bound_to 3712
   -3.9964  -22.6893   11.4711 H   0  0  0  0  0  0  0  0  0  0  0  0  # atno 3767 bound_to 3762
    1.5760  -19.9068    9.1388 H   0  0  0  0  0  0  0  0  0  0  0  0  # atno 3841 bound_to 3832
    4.9053   -9.3047    4.8821 LP  0  0  0  0  0  0  0  0  0  0  0  0  # atno 4297 bound_to 1298
    3.6392  -10.1841    4.3435 LP  0  0  0  0  0  0  0  0  0  0  0  0  # atno 4298 bound_to 1298
    0.3688   -8.9465    7.7532 LP  0  0  0  0  0  0  0  0  0  0  0  0  # atno 4299 bound_to 2456
    1.9111   -8.9448    8.2900 LP  0  0  0  0  0  0  0  0  0  0  0  0  # atno 4300 bound_to 2456
    2.2930   -7.4113    5.0839 LP  0  0  0  0  0  0  0  0  0  0  0  0  # atno 4301 bound_to 2510
    2.8300   -8.8584    4.5507 LP  0  0  0  0  0  0  0  0  0  0  0  0  # atno 4302 bound_to 2510
   -3.2881  -16.9114   14.7171 LP  0  0  0  0  0  0  0  0  0  0  0  0  # atno 4306 bound_to 3712
   -3.3846  -16.9955   13.0892 LP  0  0  0  0  0  0  0  0  0  0  0  0  # atno 4307 bound_to 3712
    2.8473  -20.0520    8.1699 LP  0  0  0  0  0  0  0  0  0  0  0  0  # atno 4314 bound_to 3832
    2.5616  -21.1579    9.3370 LP  0  0  0  0  0  0  0  0  0  0  0  0  # atno 4315 bound_to 3832
   -4.7460  -23.2057   10.1152 LP  0  0  0  0  0  0  0  0  0  0  0  0  # atno 4318 bound_to 3762
   -5.3847  -21.9800   10.9850 LP  0  0  0  0  0  0  0  0  0  0  0  0  # atno 4319 bound_to 3762
   -5.3127   -5.0068    7.9761 LP  0  0  0  0  0  0  0  0  0  0  0  0  # atno 4320 bound_to 2467
   -3.7036   -4.9260    8.2429 LP  0  0  0  0  0  0  0  0  0  0  0  0  # atno 4321 bound_to 2467

> <Gold.Score>
     Score     S(PLP)   S(hbond)     S(cho)   S(metal)  DE(clash)   DE(tors)     intcor
     37.40     -37.43       0.00       0.00       0.00       0.00       0.01       0.00

> <Gold.PLP.Fitness>
37.3993

> <Gold.PLP.PLP>
-37.4271

> <Gold.PLP.part.hbond>
0.0000

> <Gold.PLP.part.metal>
0.0000

> <Gold.PLP.part.buried>
-1.0289

> <Gold.PLP.part.nonpolar>
-36.8445

> <Gold.PLP.part.repulsive>
0.0718

> <Gold.PLP.ligand.clash>
0.0000

> <Gold.PLP.ligand.torsion>
0.0140

> <Gold.PLP.Chemscore.Hbond>
0.0000

> <Gold.PLP.Chemscore.CHOScore>
0.0000

> <Gold.PLP.Chemscore.Metal>
0.0000

> <Gold.PLP.Chemscore.Internal.Correction>
0.0002

