#       Name:                EN300-251348_i003
#       Creating user name   fsindt
#       Creation time:       Mon Feb 27 22:45:20 2023


#       File generated by GOLD software.
#

@<TRIPOS>MOLECULE
EN300-251348_i003|amine_3|mol2|1113|dock3
    28    29     1
SMALL
USER_CHARGES


@<TRIPOS>ATOM
      1 C1          -2.6722 -10.2668  10.2025 C.3            1 <1>                0.0000
      2 O2          -1.8836 -11.4832  10.2846 O.3            1 <1>                0.0000
      3 C3          -0.9915 -11.6983   9.3050 C.2            1 <1>                0.0000
      4 O4          -0.6545 -10.7889   8.5843 O.2            1 <1>                0.0000
      5 C5          -0.4101 -13.0741   9.1041 C.3            1 <1>                0.0000
      6 C6          -1.0293 -13.7151   7.8581 C.3            1 <1>                0.0000
      7 C7           0.0846 -13.9944   6.8435 C.3            1 <1>                0.0000
      8 C8           1.0781 -14.9896   7.4525 C.3            1 <1>                0.0000
      9 C9           1.6969 -14.3617   8.7050 C.3            1 <1>                0.0000
     10 C10          1.1038 -12.9666   8.9106 C.3            1 <1>                0.0000
     11 N11          1.3980 -12.1226   7.7496 N.4            1 <1>                1.0000
     12 C12          0.8153 -12.6876   6.5297 C.3            1 <1>                0.0000
     13 H13         -3.3517 -10.2162  11.0533 H              1 <1>                0.0000
     14 H14         -2.0087  -9.4021  10.2155 H              1 <1>                0.0000
     15 H15         -3.2482 -10.2689   9.2772 H              1 <1>                0.0000
     16 H16         -0.6245 -13.6914   9.9764 H              1 <1>                0.0000
     17 H17         -1.5171 -14.6504   8.1322 H              1 <1>                0.0000
     18 H18         -1.7594 -13.0339   7.4210 H              1 <1>                0.0000
     19 H19         -0.3446 -14.4146   5.9339 H              1 <1>                0.0000
     20 H20          0.5565 -15.9075   7.7233 H              1 <1>                0.0000
     21 H21          1.8628 -15.2118   6.7292 H              1 <1>                0.0000
     22 H22          1.4748 -14.9836   9.5722 H              1 <1>                0.0000
     23 H23          2.7767 -14.2836   8.5782 H              1 <1>                0.0000
     24 H24          1.5490 -12.5129   9.7962 H              1 <1>                0.0000
     25 H25          1.6085 -12.8824   5.8080 H              1 <1>                0.0000
     26 H26          0.1106 -11.9740   6.1028 H              1 <1>                0.0000
     27 H27          1.0156 -11.2017   7.9038 H              1 <1>                0.0000
     28 H28          2.3981 -12.0507   7.6368 H              1 <1>                0.0000
@<TRIPOS>BOND
    1    1    2 1     
    2    1   13 1     
    3    1   14 1     
    4    1   15 1     
    5    2    3 1     
    6    3    4 2     
    7    3    5 1     
    8    5    6 1     
    9    5   10 1     
   10    5   16 1     
   11    6    7 1     
   12    6   17 1     
   13    6   18 1     
   14    7    8 1     
   15    7   12 1     
   16    7   19 1     
   17    8    9 1     
   18    8   20 1     
   19    8   21 1     
   20    9   10 1     
   21    9   22 1     
   22    9   23 1     
   23   10   11 1     
   24   10   24 1     
   25   11   12 1     
   26   11   27 1     
   27   11   28 1     
   28   12   25 1     
   29   12   26 1     
@<TRIPOS>SUBSTRUCTURE
      1 ****           1
@<TRIPOS>SET
DONOR_HYDROGENS      STATIC     ATOMS    <user>   **** ""
2 27 28
ATOM$RED        STATIC     ATOMS    COLORGROUP SYSTEM
2 27 28
@<TRIPOS>COMMENT
> <Gold.Version>
2022.2.0

> <Gold.Id.Protein>
3pbl|protein|mol2

> <Gold.Protein.RotatedTorsions>
[ 1303 1298 1297 1294 ] final  -78.65 input  179.99 | X-H torsion
[ 2461 2456 2455 2452 ] final -119.77 input   30.03 | X-H torsion
[ 2515 2510 2509 2506 ] final  -83.19 input  -89.99 | X-H torsion
[ 3721 3712 3711 3710 ] final  147.80 input -179.91 | X-H torsion
[ 3841 3832 3831 3830 ] final  -87.59 input -179.91 | X-H torsion
[ 3767 3762 3761 3758 ] final -119.62 input  -89.99 | X-H torsion
[ 2472 2467 2466 2463 ] final -161.79 input  -89.97 | X-H torsion

> <Gold.Protein.ActiveResidues>
 VAL82   VAL86   LEU89   PHE106  VAL107  ASP110  VAL111  MET112  CYS114  THR115 
 CYS181  SER182  ILE183  PHE188  VAL189  ILE190  SER192  SER193  SER196  TRP342 
 PHE345  PHE346  HIS349  VAL350  TYR365  THR369  GLY372  TYR373 

> <Gold.Protein.RotatedAtoms>
    3.6877   -8.7396    3.8173 H   0  0  0  0  0  0  0  0  0  0  0  0  # atno 1303 bound_to 1298
    0.5731   -9.1727    8.0506 H   0  0  0  0  0  0  0  0  0  0  0  0  # atno 2461 bound_to 2456
   -5.1427   -5.4409    9.2302 H   0  0  0  0  0  0  0  0  0  0  0  0  # atno 2472 bound_to 2467
    2.8311   -8.8445    4.5413 H   0  0  0  0  0  0  0  0  0  0  0  0  # atno 2515 bound_to 2510
   -3.1934  -16.8887   13.1790 H   0  0  0  0  0  0  0  0  0  0  0  0  # atno 3721 bound_to 3712
   -4.8539  -21.9666   11.5163 H   0  0  0  0  0  0  0  0  0  0  0  0  # atno 3767 bound_to 3762
    1.8270  -19.6249    8.7310 H   0  0  0  0  0  0  0  0  0  0  0  0  # atno 3841 bound_to 3832
    4.9109   -9.1400    4.8221 LP  0  0  0  0  0  0  0  0  0  0  0  0  # atno 4297 bound_to 1298
    3.7638  -10.2419    4.4525 LP  0  0  0  0  0  0  0  0  0  0  0  0  # atno 4298 bound_to 1298
    2.1199   -8.6484    8.0668 LP  0  0  0  0  0  0  0  0  0  0  0  0  # atno 4299 bound_to 2456
    1.0446   -7.9872    7.0309 LP  0  0  0  0  0  0  0  0  0  0  0  0  # atno 4300 bound_to 2456
    2.1792   -8.7443    6.0349 LP  0  0  0  0  0  0  0  0  0  0  0  0  # atno 4301 bound_to 2510
    2.2862   -7.4101    5.0994 LP  0  0  0  0  0  0  0  0  0  0  0  0  # atno 4302 bound_to 2510
   -2.6146  -18.2184   13.8680 LP  0  0  0  0  0  0  0  0  0  0  0  0  # atno 4306 bound_to 3712
   -3.2262  -17.0096   14.7797 LP  0  0  0  0  0  0  0  0  0  0  0  0  # atno 4307 bound_to 3712
    3.1152  -20.5362    8.4375 LP  0  0  0  0  0  0  0  0  0  0  0  0  # atno 4314 bound_to 3832
    2.0037  -20.9994    9.5405 LP  0  0  0  0  0  0  0  0  0  0  0  0  # atno 4315 bound_to 3832
   -3.9536  -23.1864   10.9095 LP  0  0  0  0  0  0  0  0  0  0  0  0  # atno 4318 bound_to 3762
   -5.3200  -22.7218   10.1455 LP  0  0  0  0  0  0  0  0  0  0  0  0  # atno 4319 bound_to 3762
   -4.9318   -4.8707    7.7147 LP  0  0  0  0  0  0  0  0  0  0  0  0  # atno 4320 bound_to 2467
   -3.6425   -5.0819    8.6943 LP  0  0  0  0  0  0  0  0  0  0  0  0  # atno 4321 bound_to 2467

> <Gold.Score>
     Score     S(PLP)   S(hbond)     S(cho)   S(metal)  DE(clash)   DE(tors)     intcor
     39.89     -38.01       1.00       0.00       0.00       0.00       0.56       0.00

> <Gold.PLP.Fitness>
39.8885

> <Gold.PLP.PLP>
-38.0141

> <Gold.PLP.part.hbond>
-1.0000

> <Gold.PLP.part.metal>
0.0000

> <Gold.PLP.part.buried>
-4.7231

> <Gold.PLP.part.nonpolar>
-32.5012

> <Gold.PLP.part.repulsive>
0.0254

> <Gold.PLP.ligand.clash>
0.0000

> <Gold.PLP.ligand.torsion>
0.5630

> <Gold.PLP.Chemscore.Hbond>
1.0000

> <Gold.PLP.Chemscore.CHOScore>
0.0000

> <Gold.PLP.Chemscore.Metal>
0.0000

> <Gold.Chemscore.Hbonds>
donor molecule, donor type, donor heavy atom, donor atom, acceptor molecule, acceptor atom, score
      P1  H  2456  2461       L1     4  1.00

> <Gold.PLP.Chemscore.Internal.Correction>
0.0004

