#       Name:                EN300-251348_i003
#       Creating user name   fsindt
#       Creation time:       Mon Feb 27 22:45:26 2023


#       File generated by GOLD software.
#

@<TRIPOS>MOLECULE
EN300-251348_i003|amine_3|mol2|1113|dock17
    28    29     1
SMALL
USER_CHARGES


@<TRIPOS>ATOM
      1 C1           0.4501 -21.4241  14.5070 C.3            1 <1>                0.0000
      2 O2           0.7049 -20.0580  14.0862 O.3            1 <1>                0.0000
      3 C3          -0.2605 -19.1566  14.3256 C.2            1 <1>                0.0000
      4 O4          -1.2806 -19.4958  14.8770 O.2            1 <1>                0.0000
      5 C5          -0.0719 -17.7213  13.9065 C.3            1 <1>                0.0000
      6 C6           1.0843 -17.1037  14.6994 C.3            1 <1>                0.0000
      7 C7           2.1793 -16.6733  13.7176 C.3            1 <1>                0.0000
      8 C8           1.6157 -15.6026  12.7772 C.3            1 <1>                0.0000
      9 C9           0.4524 -16.2075  11.9855 C.3            1 <1>                0.0000
     10 C10          0.2590 -17.6633  12.4138 C.3            1 <1>                0.0000
     11 N11          1.4786 -18.4295  12.1447 N.4            1 <1>                1.0000
     12 C12          2.6154 -17.8846  12.8914 C.3            1 <1>                0.0000
     13 H13          1.3077 -22.0479  14.2549 H              1 <1>                0.0000
     14 H14          0.2877 -21.4481  15.5846 H              1 <1>                0.0000
     15 H15         -0.4362 -21.8020  13.9975 H              1 <1>                0.0000
     16 H16         -0.9868 -17.1617  14.1004 H              1 <1>                0.0000
     17 H17          0.7260 -16.2348  15.2513 H              1 <1>                0.0000
     18 H18          1.4858 -17.8410  15.3945 H              1 <1>                0.0000
     19 H19          3.0275 -16.2675  14.2690 H              1 <1>                0.0000
     20 H20          1.2585 -14.7545  13.3612 H              1 <1>                0.0000
     21 H21          2.3944 -15.2738  12.0891 H              1 <1>                0.0000
     22 H22         -0.4584 -15.6439  12.1880 H              1 <1>                0.0000
     23 H23          0.6773 -16.1680  10.9197 H              1 <1>                0.0000
     24 H24         -0.5624 -18.0999  11.8454 H              1 <1>                0.0000
     25 H25          3.3947 -17.5822  12.1918 H              1 <1>                0.0000
     26 H26          3.0106 -18.6518  13.5572 H              1 <1>                0.0000
     27 H27          1.3333 -19.3903  12.4167 H              1 <1>                0.0000
     28 H28          1.6822 -18.3927  11.1572 H              1 <1>                0.0000
@<TRIPOS>BOND
    1    1    2 1     
    2    1   13 1     
    3    1   14 1     
    4    1   15 1     
    5    2    3 1     
    6    3    4 2     
    7    3    5 1     
    8    5    6 1     
    9    5   10 1     
   10    5   16 1     
   11    6    7 1     
   12    6   17 1     
   13    6   18 1     
   14    7    8 1     
   15    7   12 1     
   16    7   19 1     
   17    8    9 1     
   18    8   20 1     
   19    8   21 1     
   20    9   10 1     
   21    9   22 1     
   22    9   23 1     
   23   10   11 1     
   24   10   24 1     
   25   11   12 1     
   26   11   27 1     
   27   11   28 1     
   28   12   25 1     
   29   12   26 1     
@<TRIPOS>SUBSTRUCTURE
      1 ****           1
@<TRIPOS>SET
DONOR_HYDROGENS      STATIC     ATOMS    <user>   **** ""
2 27 28
ATOM$RED        STATIC     ATOMS    COLORGROUP SYSTEM
2 27 28
@<TRIPOS>COMMENT
> <Gold.Version>
2022.2.0

> <Gold.Id.Protein>
3pbl|protein|mol2

> <Gold.Protein.RotatedTorsions>
[ 1303 1298 1297 1294 ] final  112.78 input  179.99 | X-H torsion
[ 2461 2456 2455 2452 ] final  146.50 input   30.03 | X-H torsion
[ 2515 2510 2509 2506 ] final  123.91 input  -89.99 | X-H torsion
[ 3721 3712 3711 3710 ] final   -8.32 input -179.91 | X-H torsion
[ 3841 3832 3831 3830 ] final  166.02 input -179.91 | X-H torsion
[ 3767 3762 3761 3758 ] final   84.53 input  -89.99 | X-H torsion
[ 2472 2467 2466 2463 ] final   28.13 input  -89.97 | X-H torsion

> <Gold.Protein.ActiveResidues>
 VAL82   VAL86   LEU89   PHE106  VAL107  ASP110  VAL111  MET112  CYS114  THR115 
 CYS181  SER182  ILE183  PHE188  VAL189  ILE190  SER192  SER193  SER196  TRP342 
 PHE345  PHE346  HIS349  VAL350  TYR365  THR369  GLY372  TYR373 

> <Gold.Protein.RotatedAtoms>
    4.6761   -9.8691    4.9424 H   0  0  0  0  0  0  0  0  0  0  0  0  # atno 1303 bound_to 1298
    1.9094   -8.9467    8.2913 H   0  0  0  0  0  0  0  0  0  0  0  0  # atno 2461 bound_to 2456
   -4.1386   -4.8060    7.7750 H   0  0  0  0  0  0  0  0  0  0  0  0  # atno 2472 bound_to 2467
    2.0492   -8.2285    6.0798 H   0  0  0  0  0  0  0  0  0  0  0  0  # atno 2515 bound_to 2510
   -2.5087  -17.9014   14.3531 H   0  0  0  0  0  0  0  0  0  0  0  0  # atno 3721 bound_to 3712
   -4.2538  -23.3350   10.4353 H   0  0  0  0  0  0  0  0  0  0  0  0  # atno 3767 bound_to 3762
    3.0593  -20.2144    8.4957 H   0  0  0  0  0  0  0  0  0  0  0  0  # atno 3841 bound_to 3832
    3.3551   -9.7749    3.9873 LP  0  0  0  0  0  0  0  0  0  0  0  0  # atno 4297 bound_to 1298
    4.3308   -8.4771    4.1617 LP  0  0  0  0  0  0  0  0  0  0  0  0  # atno 4298 bound_to 1298
    1.4606   -7.9169    7.1058 LP  0  0  0  0  0  0  0  0  0  0  0  0  # atno 4299 bound_to 2456
    0.3680   -8.9447    7.7512 LP  0  0  0  0  0  0  0  0  0  0  0  0  # atno 4300 bound_to 2456
    2.5141   -7.5896    4.6510 LP  0  0  0  0  0  0  0  0  0  0  0  0  # atno 4301 bound_to 2510
    2.7336   -9.1810    4.9440 LP  0  0  0  0  0  0  0  0  0  0  0  0  # atno 4302 bound_to 2510
   -3.4850  -16.6268   14.3359 LP  0  0  0  0  0  0  0  0  0  0  0  0  # atno 4306 bound_to 3712
   -3.1463  -17.4320   12.9563 LP  0  0  0  0  0  0  0  0  0  0  0  0  # atno 4307 bound_to 3712
    2.1617  -21.0750    9.5104 LP  0  0  0  0  0  0  0  0  0  0  0  0  # atno 4314 bound_to 3832
    1.5337  -19.7797    8.7395 LP  0  0  0  0  0  0  0  0  0  0  0  0  # atno 4315 bound_to 3832
   -5.5088  -22.2913   10.4856 LP  0  0  0  0  0  0  0  0  0  0  0  0  # atno 4318 bound_to 3762
   -4.3646  -22.2491   11.6500 LP  0  0  0  0  0  0  0  0  0  0  0  0  # atno 4319 bound_to 3762
   -4.0690   -5.3516    9.3124 LP  0  0  0  0  0  0  0  0  0  0  0  0  # atno 4320 bound_to 2467
   -5.5092   -5.2359    8.5516 LP  0  0  0  0  0  0  0  0  0  0  0  0  # atno 4321 bound_to 2467

> <Gold.Score>
     Score     S(PLP)   S(hbond)     S(cho)   S(metal)  DE(clash)   DE(tors)     intcor
     36.65     -27.76       3.00       0.00       0.00       0.00       0.05       0.00

> <Gold.PLP.Fitness>
36.6534

> <Gold.PLP.PLP>
-27.7552

> <Gold.PLP.part.hbond>
-2.0000

> <Gold.PLP.part.metal>
0.0000

> <Gold.PLP.part.buried>
-1.2711

> <Gold.PLP.part.nonpolar>
-23.8244

> <Gold.PLP.part.repulsive>
0.0114

> <Gold.PLP.ligand.clash>
0.0000

> <Gold.PLP.ligand.torsion>
0.0510

> <Gold.PLP.Chemscore.Hbond>
3.0000

> <Gold.PLP.Chemscore.CHOScore>
0.0000

> <Gold.PLP.Chemscore.Metal>
0.0000

> <Gold.Chemscore.Hbonds>
donor molecule, donor type, donor heavy atom, donor atom, acceptor molecule, acceptor atom, score
      L1  H    11    28       P1  1227  2.00
      P1  H  3712  3721       L1     4  1.00

> <Gold.PLP.Chemscore.Internal.Correction>
0.0002

