#       Name:                EN300-251348_i003
#       Creating user name   fsindt
#       Creation time:       Mon Feb 27 22:45:23 2023


#       File generated by GOLD software.
#

@<TRIPOS>MOLECULE
EN300-251348_i003|amine_3|mol2|1113|dock9
    28    29     1
SMALL
USER_CHARGES


@<TRIPOS>ATOM
      1 C1           1.3931 -13.4625   7.3212 C.3            1 <1>                0.0000
      2 O2           0.2374 -13.5004   8.1995 O.3            1 <1>                0.0000
      3 C3          -0.2145 -12.3246   8.6631 C.2            1 <1>                0.0000
      4 O4           0.2695 -11.2918   8.2645 O.2            1 <1>                0.0000
      5 C5          -1.3255 -12.2927   9.6808 C.3            1 <1>                0.0000
      6 C6          -0.8029 -11.6962  10.9915 C.3            1 <1>                0.0000
      7 C7          -1.5943 -10.4213  11.3017 C.3            1 <1>                0.0000
      8 C8          -3.0710 -10.7831  11.4936 C.3            1 <1>                0.0000
      9 C9          -3.6015 -11.3890  10.1908 C.3            1 <1>                0.0000
     10 C10         -2.4724 -11.4245   9.1592 C.3            1 <1>                0.0000
     11 N11         -1.9893 -10.0657   8.9003 N.4            1 <1>                1.0000
     12 C12         -1.4660  -9.4533  10.1241 C.3            1 <1>                0.0000
     13 H13          1.6537 -14.4770   7.0197 H              1 <1>                0.0000
     14 H14          1.1582 -12.8698   6.4371 H              1 <1>                0.0000
     15 H15          2.2347 -13.0123   7.8474 H              1 <1>                0.0000
     16 H16         -1.6856 -13.3058   9.8593 H              1 <1>                0.0000
     17 H17         -0.9369 -12.4155  11.7995 H              1 <1>                0.0000
     18 H18          0.2546 -11.4537  10.8866 H              1 <1>                0.0000
     19 H19         -1.2079  -9.9620  12.2116 H              1 <1>                0.0000
     20 H20         -3.1675 -11.5095  12.3005 H              1 <1>                0.0000
     21 H21         -3.6388  -9.8851  11.7370 H              1 <1>                0.0000
     22 H22         -3.9561 -12.4026  10.3781 H              1 <1>                0.0000
     23 H23         -4.4217 -10.7789   9.8125 H              1 <1>                0.0000
     24 H24         -2.8490 -11.8468   8.2275 H              1 <1>                0.0000
     25 H25         -2.0277  -8.5448  10.3413 H              1 <1>                0.0000
     26 H26         -0.4160  -9.1987   9.9794 H              1 <1>                0.0000
     27 H27         -1.2564 -10.1008   8.2076 H              1 <1>                0.0000
     28 H28         -2.7504  -9.5047   8.5480 H              1 <1>                0.0000
@<TRIPOS>BOND
    1    1    2 1     
    2    1   13 1     
    3    1   14 1     
    4    1   15 1     
    5    2    3 1     
    6    3    4 2     
    7    3    5 1     
    8    5    6 1     
    9    5   10 1     
   10    5   16 1     
   11    6    7 1     
   12    6   17 1     
   13    6   18 1     
   14    7    8 1     
   15    7   12 1     
   16    7   19 1     
   17    8    9 1     
   18    8   20 1     
   19    8   21 1     
   20    9   10 1     
   21    9   22 1     
   22    9   23 1     
   23   10   11 1     
   24   10   24 1     
   25   11   12 1     
   26   11   27 1     
   27   11   28 1     
   28   12   25 1     
   29   12   26 1     
@<TRIPOS>SUBSTRUCTURE
      1 ****           1
@<TRIPOS>SET
DONOR_HYDROGENS      STATIC     ATOMS    <user>   **** ""
2 27 28
ATOM$RED        STATIC     ATOMS    COLORGROUP SYSTEM
2 27 28
@<TRIPOS>COMMENT
> <Gold.Version>
2022.2.0

> <Gold.Id.Protein>
3pbl|protein|mol2

> <Gold.Protein.RotatedTorsions>
[ 1303 1298 1297 1294 ] final -110.59 input  179.99 | X-H torsion
[ 2461 2456 2455 2452 ] final -141.20 input   30.03 | X-H torsion
[ 2515 2510 2509 2506 ] final  148.30 input  -89.99 | X-H torsion
[ 3721 3712 3711 3710 ] final   62.09 input -179.91 | X-H torsion
[ 3841 3832 3831 3830 ] final    3.10 input -179.91 | X-H torsion
[ 3767 3762 3761 3758 ] final   46.44 input  -89.99 | X-H torsion
[ 2472 2467 2466 2463 ] final   44.33 input  -89.97 | X-H torsion

> <Gold.Protein.ActiveResidues>
 VAL82   VAL86   LEU89   PHE106  VAL107  ASP110  VAL111  MET112  CYS114  THR115 
 CYS181  SER182  ILE183  PHE188  VAL189  ILE190  SER192  SER193  SER196  TRP342 
 PHE345  PHE346  HIS349  VAL350  TYR365  THR369  GLY372  TYR373 

> <Gold.Protein.RotatedAtoms>
    4.1035   -8.4991    4.0129 H   0  0  0  0  0  0  0  0  0  0  0  0  # atno 1303 bound_to 1298
    0.8464   -9.2728    8.2460 H   0  0  0  0  0  0  0  0  0  0  0  0  # atno 2461 bound_to 2456
   -4.3878   -4.8003    7.6830 H   0  0  0  0  0  0  0  0  0  0  0  0  # atno 2472 bound_to 2467
    2.1358   -8.6172    6.0734 H   0  0  0  0  0  0  0  0  0  0  0  0  # atno 2515 bound_to 2510
   -2.6025  -17.8921   13.3588 H   0  0  0  0  0  0  0  0  0  0  0  0  # atno 3721 bound_to 3712
   -4.7583  -23.1987   10.1103 H   0  0  0  0  0  0  0  0  0  0  0  0  # atno 3767 bound_to 3762
    1.7644  -20.5217    9.5727 H   0  0  0  0  0  0  0  0  0  0  0  0  # atno 3841 bound_to 3832
    4.8145   -9.6343    4.9468 LP  0  0  0  0  0  0  0  0  0  0  0  0  # atno 4297 bound_to 1298
    3.4443   -9.9883    4.1320 LP  0  0  0  0  0  0  0  0  0  0  0  0  # atno 4298 bound_to 1298
    2.1588   -8.3953    7.8275 LP  0  0  0  0  0  0  0  0  0  0  0  0  # atno 4299 bound_to 2456
    0.7323   -8.1403    7.0748 LP  0  0  0  0  0  0  0  0  0  0  0  0  # atno 4300 bound_to 2456
    2.3435   -7.4289    4.9731 LP  0  0  0  0  0  0  0  0  0  0  0  0  # atno 4301 bound_to 2510
    2.8176   -8.9530    4.6284 LP  0  0  0  0  0  0  0  0  0  0  0  0  # atno 4302 bound_to 2510
   -2.9670  -17.4497   14.8586 LP  0  0  0  0  0  0  0  0  0  0  0  0  # atno 4306 bound_to 3712
   -3.5561  -16.6198   13.5815 LP  0  0  0  0  0  0  0  0  0  0  0  0  # atno 4307 bound_to 3712
    2.0982  -19.6457    8.2699 LP  0  0  0  0  0  0  0  0  0  0  0  0  # atno 4314 bound_to 3832
    3.0930  -20.8539    8.7358 LP  0  0  0  0  0  0  0  0  0  0  0  0  # atno 4315 bound_to 3832
   -5.3779  -21.9755   10.9972 LP  0  0  0  0  0  0  0  0  0  0  0  0  # atno 4318 bound_to 3762
   -3.9912  -22.7010   11.4633 LP  0  0  0  0  0  0  0  0  0  0  0  0  # atno 4319 bound_to 3762
   -3.8682   -5.2735    9.1570 LP  0  0  0  0  0  0  0  0  0  0  0  0  # atno 4320 bound_to 2467
   -5.4608   -5.3197    8.7990 LP  0  0  0  0  0  0  0  0  0  0  0  0  # atno 4321 bound_to 2467

> <Gold.Score>
     Score     S(PLP)   S(hbond)     S(cho)   S(metal)  DE(clash)   DE(tors)     intcor
     37.58     -34.72       1.00       0.00       0.00       0.00       0.07       0.00

> <Gold.PLP.Fitness>
37.5780

> <Gold.PLP.PLP>
-34.7238

> <Gold.PLP.part.hbond>
-1.0000

> <Gold.PLP.part.metal>
0.0000

> <Gold.PLP.part.buried>
-2.5238

> <Gold.PLP.part.nonpolar>
-32.4123

> <Gold.PLP.part.repulsive>
0.0790

> <Gold.PLP.ligand.clash>
0.0000

> <Gold.PLP.ligand.torsion>
0.0730

> <Gold.PLP.Chemscore.Hbond>
1.0000

> <Gold.PLP.Chemscore.CHOScore>
0.0000

> <Gold.PLP.Chemscore.Metal>
0.0000

> <Gold.Chemscore.Hbonds>
donor molecule, donor type, donor heavy atom, donor atom, acceptor molecule, acceptor atom, score
      P1  H  2456  2461       L1     4  1.00

> <Gold.PLP.Chemscore.Internal.Correction>
0.0002

