#       Name:                EN300-251348_i003
#       Creating user name   fsindt
#       Creation time:       Mon Feb 27 22:45:23 2023


#       File generated by GOLD software.
#

@<TRIPOS>MOLECULE
EN300-251348_i003|amine_3|mol2|1113|dock11
    28    29     1
SMALL
USER_CHARGES


@<TRIPOS>ATOM
      1 C1          -1.6298 -11.1179  11.3689 C.3            1 <1>                0.0000
      2 O2          -1.2604 -12.1247  10.3900 O.3            1 <1>                0.0000
      3 C3          -0.8311 -11.6857   9.1965 C.2            1 <1>                0.0000
      4 O4          -0.7342 -10.4995   8.9882 O.2            1 <1>                0.0000
      5 C5          -0.4700 -12.6724   8.1161 C.3            1 <1>                0.0000
      6 C6           1.0208 -12.5479   7.7860 C.3            1 <1>                0.0000
      7 C7           1.7055 -13.8843   8.0916 C.3            1 <1>                0.0000
      8 C8           1.1039 -14.9714   7.1946 C.3            1 <1>                0.0000
      9 C9          -0.3894 -15.0980   7.5106 C.3            1 <1>                0.0000
     10 C10         -0.7563 -14.0938   8.6047 C.3            1 <1>                0.0000
     11 N11          0.0204 -14.3690   9.8163 N.4            1 <1>                1.0000
     12 C12          1.4573 -14.2507   9.5559 C.3            1 <1>                0.0000
     13 H13         -1.9580 -11.6062  12.2864 H              1 <1>                0.0000
     14 H14         -0.7683 -10.4851  11.5821 H              1 <1>                0.0000
     15 H15         -2.4406 -10.5063  10.9729 H              1 <1>                0.0000
     16 H16         -1.0596 -12.4669   7.2228 H              1 <1>                0.0000
     17 H17          1.1424 -12.3078   6.7297 H              1 <1>                0.0000
     18 H18          1.4657 -11.7614   8.3955 H              1 <1>                0.0000
     19 H19          2.7752 -13.8007   7.8995 H              1 <1>                0.0000
     20 H20          1.2341 -14.6955   6.1482 H              1 <1>                0.0000
     21 H21          1.6006 -15.9220   7.3890 H              1 <1>                0.0000
     22 H22         -0.9710 -14.8877   6.6129 H              1 <1>                0.0000
     23 H23         -0.6044 -16.1090   7.8568 H              1 <1>                0.0000
     24 H24         -1.8168 -14.1876   8.8387 H              1 <1>                0.0000
     25 H25          1.9433 -15.2010   9.7771 H              1 <1>                0.0000
     26 H26          1.8775 -13.4762  10.1976 H              1 <1>                0.0000
     27 H27         -0.2416 -13.7106  10.5347 H              1 <1>                0.0000
     28 H28         -0.1830 -15.3045  10.1351 H              1 <1>                0.0000
@<TRIPOS>BOND
    1    1    2 1     
    2    1   13 1     
    3    1   14 1     
    4    1   15 1     
    5    2    3 1     
    6    3    4 2     
    7    3    5 1     
    8    5    6 1     
    9    5   10 1     
   10    5   16 1     
   11    6    7 1     
   12    6   17 1     
   13    6   18 1     
   14    7    8 1     
   15    7   12 1     
   16    7   19 1     
   17    8    9 1     
   18    8   20 1     
   19    8   21 1     
   20    9   10 1     
   21    9   22 1     
   22    9   23 1     
   23   10   11 1     
   24   10   24 1     
   25   11   12 1     
   26   11   27 1     
   27   11   28 1     
   28   12   25 1     
   29   12   26 1     
@<TRIPOS>SUBSTRUCTURE
      1 ****           1
@<TRIPOS>SET
DONOR_HYDROGENS      STATIC     ATOMS    <user>   **** ""
2 27 28
ATOM$RED        STATIC     ATOMS    COLORGROUP SYSTEM
2 27 28
@<TRIPOS>COMMENT
> <Gold.Version>
2022.2.0

> <Gold.Id.Protein>
3pbl|protein|mol2

> <Gold.Protein.RotatedTorsions>
[ 1303 1298 1297 1294 ] final   58.49 input  179.99 | X-H torsion
[ 2461 2456 2455 2452 ] final -126.11 input   30.03 | X-H torsion
[ 2515 2510 2509 2506 ] final  -16.53 input  -89.99 | X-H torsion
[ 3721 3712 3711 3710 ] final  100.91 input -179.91 | X-H torsion
[ 3841 3832 3831 3830 ] final   78.90 input -179.91 | X-H torsion
[ 3767 3762 3761 3758 ] final -169.64 input  -89.99 | X-H torsion
[ 2472 2467 2466 2463 ] final  -36.27 input  -89.97 | X-H torsion

> <Gold.Protein.ActiveResidues>
 VAL82   VAL86   LEU89   PHE106  VAL107  ASP110  VAL111  MET112  CYS114  THR115 
 CYS181  SER182  ILE183  PHE188  VAL189  ILE190  SER192  SER193  SER196  TRP342 
 PHE345  PHE346  HIS349  VAL350  TYR365  THR369  GLY372  TYR373 

> <Gold.Protein.RotatedAtoms>
    3.9875  -10.2711    4.6199 H   0  0  0  0  0  0  0  0  0  0  0  0  # atno 1303 bound_to 1298
    0.6458   -9.2113    8.1146 H   0  0  0  0  0  0  0  0  0  0  0  0  # atno 2461 bound_to 2456
   -3.6350   -5.0512    8.6091 H   0  0  0  0  0  0  0  0  0  0  0  0  # atno 2472 bound_to 2467
    2.6470   -7.8287    4.4585 H   0  0  0  0  0  0  0  0  0  0  0  0  # atno 2515 bound_to 2510
   -2.8650  -17.4815   13.0525 H   0  0  0  0  0  0  0  0  0  0  0  0  # atno 3721 bound_to 3712
   -4.1974  -22.4075   11.6186 H   0  0  0  0  0  0  0  0  0  0  0  0  # atno 3767 bound_to 3762
    2.7155  -20.9515    9.3685 H   0  0  0  0  0  0  0  0  0  0  0  0  # atno 3841 bound_to 3832
    3.5119   -8.9553    3.7781 LP  0  0  0  0  0  0  0  0  0  0  0  0  # atno 4297 bound_to 1298
    4.8628   -8.8946    4.6934 LP  0  0  0  0  0  0  0  0  0  0  0  0  # atno 4298 bound_to 1298
    2.1445   -8.5727    7.9997 LP  0  0  0  0  0  0  0  0  0  0  0  0  # atno 4299 bound_to 2456
    0.9473   -8.0244    7.0340 LP  0  0  0  0  0  0  0  0  0  0  0  0  # atno 4300 bound_to 2456
    2.6208   -9.2565    5.2500 LP  0  0  0  0  0  0  0  0  0  0  0  0  # atno 4301 bound_to 2510
    2.0288   -7.9142    5.9672 LP  0  0  0  0  0  0  0  0  0  0  0  0  # atno 4302 bound_to 2510
   -2.7021  -17.9556   14.5778 LP  0  0  0  0  0  0  0  0  0  0  0  0  # atno 4306 bound_to 3712
   -3.5179  -16.5881   14.2159 LP  0  0  0  0  0  0  0  0  0  0  0  0  # atno 4307 bound_to 3712
    1.3912  -20.0850    9.1011 LP  0  0  0  0  0  0  0  0  0  0  0  0  # atno 4314 bound_to 3832
    2.7012  -19.9181    8.1405 LP  0  0  0  0  0  0  0  0  0  0  0  0  # atno 4315 bound_to 3832
   -4.4298  -23.3197   10.2841 LP  0  0  0  0  0  0  0  0  0  0  0  0  # atno 4318 bound_to 3762
   -5.5001  -22.1478   10.6686 LP  0  0  0  0  0  0  0  0  0  0  0  0  # atno 4319 bound_to 3762
   -5.0683   -5.4505    9.2818 LP  0  0  0  0  0  0  0  0  0  0  0  0  # atno 4320 bound_to 2467
   -5.0134   -4.8918    7.7483 LP  0  0  0  0  0  0  0  0  0  0  0  0  # atno 4321 bound_to 2467

> <Gold.Score>
     Score     S(PLP)   S(hbond)     S(cho)   S(metal)  DE(clash)   DE(tors)     intcor
     37.71     -34.76       1.00       0.00       0.00       0.00       0.03       0.00

> <Gold.PLP.Fitness>
37.7082

> <Gold.PLP.PLP>
-34.7650

> <Gold.PLP.part.hbond>
-1.0000

> <Gold.PLP.part.metal>
0.0000

> <Gold.PLP.part.buried>
-4.4856

> <Gold.PLP.part.nonpolar>
-29.2057

> <Gold.PLP.part.repulsive>
0.0219

> <Gold.PLP.ligand.clash>
0.0000

> <Gold.PLP.ligand.torsion>
0.0285

> <Gold.PLP.Chemscore.Hbond>
1.0000

> <Gold.PLP.Chemscore.CHOScore>
0.0000

> <Gold.PLP.Chemscore.Metal>
0.0000

> <Gold.Chemscore.Hbonds>
donor molecule, donor type, donor heavy atom, donor atom, acceptor molecule, acceptor atom, score
      P1  H  2456  2461       L1     4  1.00

> <Gold.PLP.Chemscore.Internal.Correction>
0.0002

