#       Name:                EN300-251348_i003
#       Creating user name   fsindt
#       Creation time:       Mon Feb 27 22:45:27 2023


#       File generated by GOLD software.
#

@<TRIPOS>MOLECULE
EN300-251348_i003|amine_3|mol2|1113|dock18
    28    29     1
SMALL
USER_CHARGES


@<TRIPOS>ATOM
      1 C1          -0.1006 -15.5307  13.5568 C.3            1 <1>                0.0000
      2 O2           0.5758 -16.8153  13.5305 O.3            1 <1>                0.0000
      3 C3          -0.0344 -17.8381  14.1494 C.2            1 <1>                0.0000
      4 O4          -0.8540 -17.6210  15.0102 O.2            1 <1>                0.0000
      5 C5           0.3027 -19.2572  13.7706 C.3            1 <1>                0.0000
      6 C6          -0.9583 -19.9665  13.2671 C.3            1 <1>                0.0000
      7 C7          -0.7338 -20.3959  11.8133 C.3            1 <1>                0.0000
      8 C8           0.4308 -21.3904  11.7594 C.3            1 <1>                0.0000
      9 C9           1.6958 -20.6935  12.2696 C.3            1 <1>                0.0000
     10 C10          1.3523 -19.2542  12.6573 C.3            1 <1>                0.0000
     11 N11          0.8379 -18.5317  11.4910 N.4            1 <1>                1.0000
     12 C12         -0.3790 -19.1652  10.9768 C.3            1 <1>                0.0000
     13 H13          0.4984 -14.7936  13.0220 H              1 <1>                0.0000
     14 H14         -1.0753 -15.6235  13.0777 H              1 <1>                0.0000
     15 H15         -0.2327 -15.2107  14.5903 H              1 <1>                0.0000
     16 H16          0.6942 -19.7837  14.6410 H              1 <1>                0.0000
     17 H17         -1.1536 -20.8452  13.8818 H              1 <1>                0.0000
     18 H18         -1.8070 -19.2847  13.3199 H              1 <1>                0.0000
     19 H19         -1.6371 -20.8675  11.4264 H              1 <1>                0.0000
     20 H20          0.2070 -22.2501  12.3911 H              1 <1>                0.0000
     21 H21          0.5838 -21.7190  10.7314 H              1 <1>                0.0000
     22 H22          2.0781 -21.2246  13.1414 H              1 <1>                0.0000
     23 H23          2.4514 -20.6890  11.4840 H              1 <1>                0.0000
     24 H24          2.2525 -18.7522  13.0122 H              1 <1>                0.0000
     25 H25         -0.2188 -19.4668   9.9417 H              1 <1>                0.0000
     26 H26         -1.2020 -18.4517  11.0181 H              1 <1>                0.0000
     27 H27          0.6299 -17.5804  11.7556 H              1 <1>                0.0000
     28 H28          1.5408 -18.5274  10.7671 H              1 <1>                0.0000
@<TRIPOS>BOND
    1    1    2 1     
    2    1   13 1     
    3    1   14 1     
    4    1   15 1     
    5    2    3 1     
    6    3    4 2     
    7    3    5 1     
    8    5    6 1     
    9    5   10 1     
   10    5   16 1     
   11    6    7 1     
   12    6   17 1     
   13    6   18 1     
   14    7    8 1     
   15    7   12 1     
   16    7   19 1     
   17    8    9 1     
   18    8   20 1     
   19    8   21 1     
   20    9   10 1     
   21    9   22 1     
   22    9   23 1     
   23   10   11 1     
   24   10   24 1     
   25   11   12 1     
   26   11   27 1     
   27   11   28 1     
   28   12   25 1     
   29   12   26 1     
@<TRIPOS>SUBSTRUCTURE
      1 ****           1
@<TRIPOS>SET
DONOR_HYDROGENS      STATIC     ATOMS    <user>   **** ""
2 27 28
ATOM$RED        STATIC     ATOMS    COLORGROUP SYSTEM
2 27 28
@<TRIPOS>COMMENT
> <Gold.Version>
2022.2.0

> <Gold.Id.Protein>
3pbl|protein|mol2

> <Gold.Protein.RotatedTorsions>
[ 1303 1298 1297 1294 ] final   71.17 input  179.99 | X-H torsion
[ 2461 2456 2455 2452 ] final  160.54 input   30.03 | X-H torsion
[ 2515 2510 2509 2506 ] final  138.12 input  -89.99 | X-H torsion
[ 3721 3712 3711 3710 ] final  -11.56 input -179.91 | X-H torsion
[ 3841 3832 3831 3830 ] final   12.78 input -179.91 | X-H torsion
[ 3767 3762 3761 3758 ] final   36.41 input  -89.99 | X-H torsion
[ 2472 2467 2466 2463 ] final    2.26 input  -89.97 | X-H torsion

> <Gold.Protein.ActiveResidues>
 VAL82   VAL86   LEU89   PHE106  VAL107  ASP110  VAL111  MET112  CYS114  THR115 
 CYS181  SER182  ILE183  PHE188  VAL189  ILE190  SER192  SER193  SER196  TRP342 
 PHE345  PHE346  HIS349  VAL350  TYR365  THR369  GLY372  TYR373 

> <Gold.Protein.RotatedAtoms>
    4.1619  -10.2416    4.7296 H   0  0  0  0  0  0  0  0  0  0  0  0  # atno 1303 bound_to 1298
    1.7364   -9.0805    8.3646 H   0  0  0  0  0  0  0  0  0  0  0  0  # atno 2461 bound_to 2456
   -3.8193   -4.8678    8.0440 H   0  0  0  0  0  0  0  0  0  0  0  0  # atno 2472 bound_to 2467
    2.0921   -8.4573    6.0952 H   0  0  0  0  0  0  0  0  0  0  0  0  # atno 2515 bound_to 2510
   -2.5195  -17.8763   14.3937 H   0  0  0  0  0  0  0  0  0  0  0  0  # atno 3721 bound_to 3712
   -4.8969  -23.1171   10.0748 H   0  0  0  0  0  0  0  0  0  0  0  0  # atno 3767 bound_to 3762
    1.8614  -20.6258    9.6059 H   0  0  0  0  0  0  0  0  0  0  0  0  # atno 3841 bound_to 3832
    3.4158   -9.1399    3.7830 LP  0  0  0  0  0  0  0  0  0  0  0  0  # atno 4297 bound_to 1298
    4.7845   -8.7396    4.5788 LP  0  0  0  0  0  0  0  0  0  0  0  0  # atno 4298 bound_to 1298
    1.6701   -7.9376    7.1997 LP  0  0  0  0  0  0  0  0  0  0  0  0  # atno 4299 bound_to 2456
    0.3314   -8.7902    7.5841 LP  0  0  0  0  0  0  0  0  0  0  0  0  # atno 4300 bound_to 2456
    2.4145   -7.4773    4.8297 LP  0  0  0  0  0  0  0  0  0  0  0  0  # atno 4301 bound_to 2510
    2.7903   -9.0645    4.7500 LP  0  0  0  0  0  0  0  0  0  0  0  0  # atno 4302 bound_to 2510
   -3.4996  -16.6090   14.2870 LP  0  0  0  0  0  0  0  0  0  0  0  0  # atno 4306 bound_to 3712
   -3.1193  -17.4789   12.9583 LP  0  0  0  0  0  0  0  0  0  0  0  0  # atno 4307 bound_to 3712
    1.9567  -19.6343    8.3474 LP  0  0  0  0  0  0  0  0  0  0  0  0  # atno 4314 bound_to 3832
    3.1224  -20.7450    8.6200 LP  0  0  0  0  0  0  0  0  0  0  0  0  # atno 4315 bound_to 3832
   -5.2906  -21.9353   11.1309 LP  0  0  0  0  0  0  0  0  0  0  0  0  # atno 4318 bound_to 3762
   -3.9400  -22.8228   11.3650 LP  0  0  0  0  0  0  0  0  0  0  0  0  # atno 4319 bound_to 3762
   -4.4647   -5.4380    9.4313 LP  0  0  0  0  0  0  0  0  0  0  0  0  # atno 4320 bound_to 2467
   -5.4328   -5.0877    8.1638 LP  0  0  0  0  0  0  0  0  0  0  0  0  # atno 4321 bound_to 2467

> <Gold.Score>
     Score     S(PLP)   S(hbond)     S(cho)   S(metal)  DE(clash)   DE(tors)     intcor
     34.92     -26.55       3.00       0.00       0.00       0.00       0.31       0.00

> <Gold.PLP.Fitness>
34.9162

> <Gold.PLP.PLP>
-26.5451

> <Gold.PLP.part.hbond>
-2.0000

> <Gold.PLP.part.metal>
0.0000

> <Gold.PLP.part.buried>
-3.5863

> <Gold.PLP.part.nonpolar>
-20.7283

> <Gold.PLP.part.repulsive>
0.0469

> <Gold.PLP.ligand.clash>
0.0000

> <Gold.PLP.ligand.torsion>
0.3146

> <Gold.PLP.Chemscore.Hbond>
3.0000

> <Gold.PLP.Chemscore.CHOScore>
0.0000

> <Gold.PLP.Chemscore.Metal>
0.0000

> <Gold.Chemscore.Hbonds>
donor molecule, donor type, donor heavy atom, donor atom, acceptor molecule, acceptor atom, score
      L1  H    11    28       P1  1227  2.00
      P1  H  3712  3721       L1     4  1.00

> <Gold.PLP.Chemscore.Internal.Correction>
0.0002

