#       Name:                EN300-251348_i003
#       Creating user name   fsindt
#       Creation time:       Mon Feb 27 22:45:19 2023


#       File generated by GOLD software.
#

@<TRIPOS>MOLECULE
EN300-251348_i003|amine_3|mol2|1113|dock1
    28    29     1
SMALL
USER_CHARGES


@<TRIPOS>ATOM
      1 C1           0.3418 -14.8003   7.3300 C.3            1 <1>                0.0000
      2 O2           0.2723 -13.3961   7.6931 O.3            1 <1>                0.0000
      3 C3           0.0489 -13.1112   8.9856 C.2            1 <1>                0.0000
      4 O4          -0.0751 -14.0054   9.7887 O.2            1 <1>                0.0000
      5 C5          -0.0474 -11.6760   9.4351 C.3            1 <1>                0.0000
      6 C6          -1.1760 -10.9748   8.6726 C.3            1 <1>                0.0000
      7 C7          -2.2288 -10.4999   9.6797 C.3            1 <1>                0.0000
      8 C8          -1.5885  -9.4838  10.6315 C.3            1 <1>                0.0000
      9 C9          -0.4520 -10.1727  11.3930 C.3            1 <1>                0.0000
     10 C10         -0.3523 -11.6285  10.9338 C.3            1 <1>                0.0000
     11 N11         -1.6115 -12.3260  11.2072 N.4            1 <1>                1.0000
     12 C12         -2.7245 -11.6995  10.4893 C.3            1 <1>                0.0000
     13 H13          0.5262 -14.8901   6.2595 H              1 <1>                0.0000
     14 H14          1.1529 -15.2779   7.8797 H              1 <1>                0.0000
     15 H15         -0.6013 -15.2869   7.5784 H              1 <1>                0.0000
     16 H16          0.8965 -11.1680   9.2376 H              1 <1>                0.0000
     17 H17         -0.7744 -10.1178   8.1319 H              1 <1>                0.0000
     18 H18         -1.6310 -11.6728   7.9699 H              1 <1>                0.0000
     19 H19         -3.0592 -10.0333   9.1496 H              1 <1>                0.0000
     20 H20         -1.1897  -8.6468  10.0583 H              1 <1>                0.0000
     21 H21         -2.3360  -9.1231  11.3380 H              1 <1>                0.0000
     22 H22          0.4878  -9.6604  11.1870 H              1 <1>                0.0000
     23 H23         -0.6586 -10.1413  12.4628 H              1 <1>                0.0000
     24 H24          0.4497 -12.1245  11.4805 H              1 <1>                0.0000
     25 H25         -3.4739 -11.3654  11.2067 H              1 <1>                0.0000
     26 H26         -3.1745 -12.4283   9.8151 H              1 <1>                0.0000
     27 H27         -1.5279 -13.2881  10.9145 H              1 <1>                0.0000
     28 H28         -1.7981 -12.2970  12.1984 H              1 <1>                0.0000
@<TRIPOS>BOND
    1    1    2 1     
    2    1   13 1     
    3    1   14 1     
    4    1   15 1     
    5    2    3 1     
    6    3    4 2     
    7    3    5 1     
    8    5    6 1     
    9    5   10 1     
   10    5   16 1     
   11    6    7 1     
   12    6   17 1     
   13    6   18 1     
   14    7    8 1     
   15    7   12 1     
   16    7   19 1     
   17    8    9 1     
   18    8   20 1     
   19    8   21 1     
   20    9   10 1     
   21    9   22 1     
   22    9   23 1     
   23   10   11 1     
   24   10   24 1     
   25   11   12 1     
   26   11   27 1     
   27   11   28 1     
   28   12   25 1     
   29   12   26 1     
@<TRIPOS>SUBSTRUCTURE
      1 ****           1
@<TRIPOS>SET
DONOR_HYDROGENS      STATIC     ATOMS    <user>   **** ""
2 27 28
ATOM$RED        STATIC     ATOMS    COLORGROUP SYSTEM
2 27 28
@<TRIPOS>COMMENT
> <Gold.Version>
2022.2.0

> <Gold.Id.Protein>
3pbl|protein|mol2

> <Gold.Protein.RotatedTorsions>
[ 1303 1298 1297 1294 ] final -148.92 input  179.99 | X-H torsion
[ 2461 2456 2455 2452 ] final  -85.31 input   30.03 | X-H torsion
[ 2515 2510 2509 2506 ] final   11.83 input  -89.99 | X-H torsion
[ 3721 3712 3711 3710 ] final   27.66 input -179.91 | X-H torsion
[ 3841 3832 3831 3830 ] final   55.42 input -179.91 | X-H torsion
[ 3767 3762 3761 3758 ] final  161.97 input  -89.99 | X-H torsion
[ 2472 2467 2466 2463 ] final  -85.84 input  -89.97 | X-H torsion

> <Gold.Protein.ActiveResidues>
 VAL82   VAL86   LEU89   PHE106  VAL107  ASP110  VAL111  MET112  CYS114  THR115 
 CYS181  SER182  ILE183  PHE188  VAL189  ILE190  SER192  SER193  SER196  TRP342 
 PHE345  PHE346  HIS349  VAL350  TYR365  THR369  GLY372  TYR373 

> <Gold.Protein.RotatedAtoms>
    4.5977   -8.5609    4.3803 H   0  0  0  0  0  0  0  0  0  0  0  0  # atno 1303 bound_to 1298
    0.3398   -8.8565    7.6533 H   0  0  0  0  0  0  0  0  0  0  0  0  # atno 2461 bound_to 2456
   -3.9886   -5.3250    9.2609 H   0  0  0  0  0  0  0  0  0  0  0  0  # atno 2472 bound_to 2467
    2.4589   -7.5212    4.7472 H   0  0  0  0  0  0  0  0  0  0  0  0  # atno 2515 bound_to 2510
   -2.4787  -18.0342   13.8356 H   0  0  0  0  0  0  0  0  0  0  0  0  # atno 3721 bound_to 3712
   -3.9650  -22.7554   11.4214 H   0  0  0  0  0  0  0  0  0  0  0  0  # atno 3767 bound_to 3762
    2.4084  -20.9302    9.5396 H   0  0  0  0  0  0  0  0  0  0  0  0  # atno 3841 bound_to 3832
    4.4287  -10.1114    4.8639 LP  0  0  0  0  0  0  0  0  0  0  0  0  # atno 4297 bound_to 1298
    3.3356   -9.4493    3.8473 LP  0  0  0  0  0  0  0  0  0  0  0  0  # atno 4298 bound_to 1298
    1.8125   -9.0277    8.3383 LP  0  0  0  0  0  0  0  0  0  0  0  0  # atno 4299 bound_to 2456
    1.5852   -7.9240    7.1565 LP  0  0  0  0  0  0  0  0  0  0  0  0  # atno 4300 bound_to 2456
    2.7677   -9.1221    4.8330 LP  0  0  0  0  0  0  0  0  0  0  0  0  # atno 4301 bound_to 2510
    2.0701   -8.3562    6.0953 LP  0  0  0  0  0  0  0  0  0  0  0  0  # atno 4302 bound_to 2510
   -3.2509  -16.9700   14.7570 LP  0  0  0  0  0  0  0  0  0  0  0  0  # atno 4306 bound_to 3712
   -3.4151  -16.9356   13.1326 LP  0  0  0  0  0  0  0  0  0  0  0  0  # atno 4307 bound_to 3712
    1.4845  -19.8338    8.8184 LP  0  0  0  0  0  0  0  0  0  0  0  0  # atno 4314 bound_to 3832
    2.9628  -20.1940    8.2255 LP  0  0  0  0  0  0  0  0  0  0  0  0  # atno 4315 bound_to 3832
   -4.8208  -23.1647   10.0922 LP  0  0  0  0  0  0  0  0  0  0  0  0  # atno 4318 bound_to 3762
   -5.3412  -21.9550   11.0577 LP  0  0  0  0  0  0  0  0  0  0  0  0  # atno 4319 bound_to 3762
   -5.4998   -5.2685    8.6449 LP  0  0  0  0  0  0  0  0  0  0  0  0  # atno 4320 bound_to 2467
   -4.2284   -4.8001    7.7334 LP  0  0  0  0  0  0  0  0  0  0  0  0  # atno 4321 bound_to 2467

> <Gold.Score>
     Score     S(PLP)   S(hbond)     S(cho)   S(metal)  DE(clash)   DE(tors)     intcor
     36.74     -36.75       0.00       0.00       0.00       0.00       0.01       0.00

> <Gold.PLP.Fitness>
36.7422

> <Gold.PLP.PLP>
-36.7548

> <Gold.PLP.part.hbond>
0.0000

> <Gold.PLP.part.metal>
0.0000

> <Gold.PLP.part.buried>
-3.5498

> <Gold.PLP.part.nonpolar>
-34.1218

> <Gold.PLP.part.repulsive>
0.1133

> <Gold.PLP.ligand.clash>
0.0000

> <Gold.PLP.ligand.torsion>
0.0065

> <Gold.PLP.Chemscore.Hbond>
0.0000

> <Gold.PLP.Chemscore.CHOScore>
0.0000

> <Gold.PLP.Chemscore.Metal>
0.0000

> <Gold.PLP.Chemscore.Internal.Correction>
0.0004

