#       Name:                EN300-251348_i003
#       Creating user name   fsindt
#       Creation time:       Mon Feb 27 22:45:27 2023


#       File generated by GOLD software.
#

@<TRIPOS>MOLECULE
EN300-251348_i003|amine_3|mol2|1113|dock19
    28    29     1
SMALL
USER_CHARGES


@<TRIPOS>ATOM
      1 C1           0.9410 -13.9344   7.6920 C.3            1 <1>                0.0000
      2 O2           0.1062 -13.0782   8.5156 O.3            1 <1>                0.0000
      3 C3           0.0402 -11.7815   8.1751 C.2            1 <1>                0.0000
      4 O4           0.6889 -11.3678   7.2434 O.2            1 <1>                0.0000
      5 C5          -0.8430 -10.8417   8.9547 C.3            1 <1>                0.0000
      6 C6          -2.2653 -11.4076   9.0160 C.3            1 <1>                0.0000
      7 C7          -2.6332 -11.6553  10.4828 C.3            1 <1>                0.0000
      8 C8          -2.6142 -10.3208  11.2358 C.3            1 <1>                0.0000
      9 C9          -1.1977  -9.7416  11.1729 C.3            1 <1>                0.0000
     10 C10         -0.3024 -10.6941  10.3784 C.3            1 <1>                0.0000
     11 N11         -0.2616 -12.0043  11.0331 N.4            1 <1>                1.0000
     12 C12         -1.6001 -12.5956  11.1063 C.3            1 <1>                0.0000
     13 H13          0.9055 -14.9541   8.0755 H              1 <1>                0.0000
     14 H14          0.5752 -13.9195   6.6653 H              1 <1>                0.0000
     15 H15          1.9688 -13.5724   7.7168 H              1 <1>                0.0000
     16 H16         -0.8591  -9.8673   8.4666 H              1 <1>                0.0000
     17 H17         -2.9625 -10.6921   8.5800 H              1 <1>                0.0000
     18 H18         -2.3092 -12.3467   8.4646 H              1 <1>                0.0000
     19 H19         -3.6286 -12.0957  10.5420 H              1 <1>                0.0000
     20 H20         -3.3137  -9.6275  10.7688 H              1 <1>                0.0000
     21 H21         -2.8967 -10.4838  12.2759 H              1 <1>                0.0000
     22 H22         -1.2230  -8.7693  10.6807 H              1 <1>                0.0000
     23 H23         -0.8045  -9.6296  12.1834 H              1 <1>                0.0000
     24 H24          0.7091 -10.2895  10.3396 H              1 <1>                0.0000
     25 H25         -1.8588 -12.7743  12.1499 H              1 <1>                0.0000
     26 H26         -1.6052 -13.5440  10.5690 H              1 <1>                0.0000
     27 H27          0.3437 -12.6182  10.5087 H              1 <1>                0.0000
     28 H28          0.1050 -11.8970  11.9670 H              1 <1>                0.0000
@<TRIPOS>BOND
    1    1    2 1     
    2    1   13 1     
    3    1   14 1     
    4    1   15 1     
    5    2    3 1     
    6    3    4 2     
    7    3    5 1     
    8    5    6 1     
    9    5   10 1     
   10    5   16 1     
   11    6    7 1     
   12    6   17 1     
   13    6   18 1     
   14    7    8 1     
   15    7   12 1     
   16    7   19 1     
   17    8    9 1     
   18    8   20 1     
   19    8   21 1     
   20    9   10 1     
   21    9   22 1     
   22    9   23 1     
   23   10   11 1     
   24   10   24 1     
   25   11   12 1     
   26   11   27 1     
   27   11   28 1     
   28   12   25 1     
   29   12   26 1     
@<TRIPOS>SUBSTRUCTURE
      1 ****           1
@<TRIPOS>SET
DONOR_HYDROGENS      STATIC     ATOMS    <user>   **** ""
2 27 28
ATOM$RED        STATIC     ATOMS    COLORGROUP SYSTEM
2 27 28
@<TRIPOS>COMMENT
> <Gold.Version>
2022.2.0

> <Gold.Id.Protein>
3pbl|protein|mol2

> <Gold.Protein.RotatedTorsions>
[ 1303 1298 1297 1294 ] final   15.87 input  179.99 | X-H torsion
[ 2461 2456 2455 2452 ] final -120.23 input   30.03 | X-H torsion
[ 2515 2510 2509 2506 ] final   51.09 input  -89.99 | X-H torsion
[ 3721 3712 3711 3710 ] final   96.97 input -179.91 | X-H torsion
[ 3841 3832 3831 3830 ] final   77.46 input -179.91 | X-H torsion
[ 3767 3762 3761 3758 ] final  -58.14 input  -89.99 | X-H torsion
[ 2472 2467 2466 2463 ] final -129.03 input  -89.97 | X-H torsion

> <Gold.Protein.ActiveResidues>
 VAL82   VAL86   LEU89   PHE106  VAL107  ASP110  VAL111  MET112  CYS114  THR115 
 CYS181  SER182  ILE183  PHE188  VAL189  ILE190  SER192  SER193  SER196  TRP342 
 PHE345  PHE346  HIS349  VAL350  TYR365  THR369  GLY372  TYR373 

> <Gold.Protein.RotatedAtoms>
    3.4946  -10.0577    4.1946 H   0  0  0  0  0  0  0  0  0  0  0  0  # atno 1303 bound_to 1298
    0.5781   -9.1757    8.0554 H   0  0  0  0  0  0  0  0  0  0  0  0  # atno 2461 bound_to 2456
   -4.6490   -5.4577    9.4275 H   0  0  0  0  0  0  0  0  0  0  0  0  # atno 2472 bound_to 2467
    2.1981   -7.4247    5.3161 H   0  0  0  0  0  0  0  0  0  0  0  0  # atno 2515 bound_to 2510
   -2.8354  -17.5308   13.0677 H   0  0  0  0  0  0  0  0  0  0  0  0  # atno 3721 bound_to 3712
   -5.4714  -22.0747   10.7841 H   0  0  0  0  0  0  0  0  0  0  0  0  # atno 3767 bound_to 3762
    2.6980  -20.9535    9.3812 H   0  0  0  0  0  0  0  0  0  0  0  0  # atno 3841 bound_to 3832
    4.0149   -8.5276    3.9618 LP  0  0  0  0  0  0  0  0  0  0  0  0  # atno 4297 bound_to 1298
    4.8529   -9.5358    4.9353 LP  0  0  0  0  0  0  0  0  0  0  0  0  # atno 4298 bound_to 1298
    2.1220   -8.6430    8.0621 LP  0  0  0  0  0  0  0  0  0  0  0  0  # atno 4299 bound_to 2456
    1.0374   -7.9897    7.0308 LP  0  0  0  0  0  0  0  0  0  0  0  0  # atno 4300 bound_to 2456
    2.8340   -8.6389    4.4289 LP  0  0  0  0  0  0  0  0  0  0  0  0  # atno 4301 bound_to 2510
    2.2647   -8.9360    5.9303 LP  0  0  0  0  0  0  0  0  0  0  0  0  # atno 4302 bound_to 2510
   -2.7227  -17.9126   14.6231 LP  0  0  0  0  0  0  0  0  0  0  0  0  # atno 4306 bound_to 3712
   -3.5315  -16.5741   14.1531 LP  0  0  0  0  0  0  0  0  0  0  0  0  # atno 4307 bound_to 3712
    1.3929  -20.0677    9.0845 LP  0  0  0  0  0  0  0  0  0  0  0  0  # atno 4314 bound_to 3832
    2.7199  -19.9332    8.1424 LP  0  0  0  0  0  0  0  0  0  0  0  0  # atno 4315 bound_to 3832
   -4.1122  -22.5103   11.5777 LP  0  0  0  0  0  0  0  0  0  0  0  0  # atno 4318 bound_to 3762
   -4.5440  -23.2898   10.2093 LP  0  0  0  0  0  0  0  0  0  0  0  0  # atno 4319 bound_to 3762
   -5.3434   -5.0241    8.0146 LP  0  0  0  0  0  0  0  0  0  0  0  0  # atno 4320 bound_to 2467
   -3.7245   -4.9118    8.1972 LP  0  0  0  0  0  0  0  0  0  0  0  0  # atno 4321 bound_to 2467

> <Gold.Score>
     Score     S(PLP)   S(hbond)     S(cho)   S(metal)  DE(clash)   DE(tors)     intcor
     35.76     -35.45       0.16       0.00       0.00       0.00       0.09       0.00

> <Gold.PLP.Fitness>
35.7629

> <Gold.PLP.PLP>
-35.4510

> <Gold.PLP.part.hbond>
-0.9611

> <Gold.PLP.part.metal>
0.0000

> <Gold.PLP.part.buried>
-2.5921

> <Gold.PLP.part.nonpolar>
-32.9671

> <Gold.PLP.part.repulsive>
0.0360

> <Gold.PLP.ligand.clash>
0.0000

> <Gold.PLP.ligand.torsion>
0.0899

> <Gold.PLP.Chemscore.Hbond>
0.1638

> <Gold.PLP.Chemscore.CHOScore>
0.0000

> <Gold.PLP.Chemscore.Metal>
0.0000

> <Gold.Chemscore.Hbonds>
donor molecule, donor type, donor heavy atom, donor atom, acceptor molecule, acceptor atom, score
      P1  H  2456  2461       L1     4  0.16

> <Gold.PLP.Chemscore.Internal.Correction>
0.0002

