#       Name:                EN300-251348_i003
#       Creating user name   fsindt
#       Creation time:       Mon Feb 27 22:45:28 2023


#       File generated by GOLD software.
#

@<TRIPOS>MOLECULE
EN300-251348_i003|amine_3|mol2|1113|dock20
    28    29     1
SMALL
USER_CHARGES


@<TRIPOS>ATOM
      1 C1           0.1332 -21.6148  12.4403 C.3            1 <1>                0.0000
      2 O2           0.5365 -20.2756  12.8305 O.3            1 <1>                0.0000
      3 C3          -0.4213 -19.4654  13.3076 C.2            1 <1>                0.0000
      4 O4          -1.5460 -19.8814  13.4559 O.2            1 <1>                0.0000
      5 C5          -0.0941 -18.0368  13.6584 C.3            1 <1>                0.0000
      6 C6           0.9915 -18.0102  14.7390 C.3            1 <1>                0.0000
      7 C7           2.2237 -17.2904  14.1806 C.3            1 <1>                0.0000
      8 C8           1.8476 -15.8440  13.8418 C.3            1 <1>                0.0000
      9 C9           0.7557 -15.8592  12.7678 C.3            1 <1>                0.0000
     10 C10          0.4213 -17.3096  12.4147 C.3            1 <1>                0.0000
     11 N11          1.6150 -17.9869  11.9017 N.4            1 <1>                1.0000
     12 C12          2.6826 -17.9993  12.9051 C.3            1 <1>                0.0000
     13 H13          1.0008 -22.1631  12.0734 H              1 <1>                0.0000
     14 H14         -0.2866 -22.1334  13.3023 H              1 <1>                0.0000
     15 H15         -0.6174 -21.5531  11.6524 H              1 <1>                0.0000
     16 H16         -0.9896 -17.5380  14.0289 H              1 <1>                0.0000
     17 H17          0.6223 -17.4770  15.6150 H              1 <1>                0.0000
     18 H18          1.2578 -19.0305  15.0147 H              1 <1>                0.0000
     19 H19          3.0209 -17.2976  14.9240 H              1 <1>                0.0000
     20 H20          1.4743 -15.3443  14.7356 H              1 <1>                0.0000
     21 H21          2.7241 -15.3171  13.4645 H              1 <1>                0.0000
     22 H22         -0.1365 -15.3617  13.1481 H              1 <1>                0.0000
     23 H23          1.1123 -15.3404  11.8780 H              1 <1>                0.0000
     24 H24         -0.3492 -17.3241  11.6437 H              1 <1>                0.0000
     25 H25          3.5593 -17.4901  12.5051 H              1 <1>                0.0000
     26 H26          2.9444 -19.0310  13.1403 H              1 <1>                0.0000
     27 H27          1.3781 -18.9370  11.6580 H              1 <1>                0.0000
     28 H28          1.9407 -17.5055  11.0769 H              1 <1>                0.0000
@<TRIPOS>BOND
    1    1    2 1     
    2    1   13 1     
    3    1   14 1     
    4    1   15 1     
    5    2    3 1     
    6    3    4 2     
    7    3    5 1     
    8    5    6 1     
    9    5   10 1     
   10    5   16 1     
   11    6    7 1     
   12    6   17 1     
   13    6   18 1     
   14    7    8 1     
   15    7   12 1     
   16    7   19 1     
   17    8    9 1     
   18    8   20 1     
   19    8   21 1     
   20    9   10 1     
   21    9   22 1     
   22    9   23 1     
   23   10   11 1     
   24   10   24 1     
   25   11   12 1     
   26   11   27 1     
   27   11   28 1     
   28   12   25 1     
   29   12   26 1     
@<TRIPOS>SUBSTRUCTURE
      1 ****           1
@<TRIPOS>SET
DONOR_HYDROGENS      STATIC     ATOMS    <user>   **** ""
2 27 28
ATOM$RED        STATIC     ATOMS    COLORGROUP SYSTEM
2 27 28
@<TRIPOS>COMMENT
> <Gold.Version>
2022.2.0

> <Gold.Id.Protein>
3pbl|protein|mol2

> <Gold.Protein.RotatedTorsions>
[ 1303 1298 1297 1294 ] final  -49.56 input  179.99 | X-H torsion
[ 2461 2456 2455 2452 ] final  161.90 input   30.03 | X-H torsion
[ 2515 2510 2509 2506 ] final   78.44 input  -89.99 | X-H torsion
[ 3721 3712 3711 3710 ] final   33.52 input -179.91 | X-H torsion
[ 3841 3832 3831 3830 ] final  -35.42 input -179.91 | X-H torsion
[ 3767 3762 3761 3758 ] final  133.07 input  -89.99 | X-H torsion
[ 2472 2467 2466 2463 ] final   -0.61 input  -89.97 | X-H torsion

> <Gold.Protein.ActiveResidues>
 VAL82   VAL86   LEU89   PHE106  VAL107  ASP110  VAL111  MET112  CYS114  THR115 
 CYS181  SER182  ILE183  PHE188  VAL189  ILE190  SER192  SER193  SER196  TRP342 
 PHE345  PHE346  HIS349  VAL350  TYR365  THR369  GLY372  TYR373 

> <Gold.Protein.RotatedAtoms>
    3.4203   -9.1289    3.7825 H   0  0  0  0  0  0  0  0  0  0  0  0  # atno 1303 bound_to 1298
    1.7180   -9.0920    8.3696 H   0  0  0  0  0  0  0  0  0  0  0  0  # atno 2461 bound_to 2456
   -3.7922   -4.8783    8.0812 H   0  0  0  0  0  0  0  0  0  0  0  0  # atno 2472 bound_to 2467
    2.0734   -7.6050    5.7039 H   0  0  0  0  0  0  0  0  0  0  0  0  # atno 2515 bound_to 2510
   -2.4898  -18.0284   13.7480 H   0  0  0  0  0  0  0  0  0  0  0  0  # atno 3721 bound_to 3712
   -3.9124  -23.0767   11.0816 H   0  0  0  0  0  0  0  0  0  0  0  0  # atno 3767 bound_to 3762
    1.5628  -20.0677    9.2910 H   0  0  0  0  0  0  0  0  0  0  0  0  # atno 3841 bound_to 3832
    4.7899   -8.7478    4.5858 LP  0  0  0  0  0  0  0  0  0  0  0  0  # atno 4297 bound_to 1298
    4.1522  -10.2448    4.7235 LP  0  0  0  0  0  0  0  0  0  0  0  0  # atno 4298 bound_to 1298
    1.6892   -7.9418    7.2105 LP  0  0  0  0  0  0  0  0  0  0  0  0  # atno 4299 bound_to 2456
    0.3308   -8.7745    7.5682 LP  0  0  0  0  0  0  0  0  0  0  0  0  # atno 4300 bound_to 2456
    2.7714   -8.2038    4.3549 LP  0  0  0  0  0  0  0  0  0  0  0  0  # atno 4301 bound_to 2510
    2.4521   -9.1907    5.6162 LP  0  0  0  0  0  0  0  0  0  0  0  0  # atno 4302 bound_to 2510
   -3.2040  -17.0455   14.7976 LP  0  0  0  0  0  0  0  0  0  0  0  0  # atno 4306 bound_to 3712
   -3.4492  -16.8667   13.1931 LP  0  0  0  0  0  0  0  0  0  0  0  0  # atno 4307 bound_to 3712
    2.6652  -19.8906    8.1381 LP  0  0  0  0  0  0  0  0  0  0  0  0  # atno 4314 bound_to 3832
    2.7588  -21.1335    9.1930 LP  0  0  0  0  0  0  0  0  0  0  0  0  # atno 4315 bound_to 3832
   -5.1908  -22.8741   10.0858 LP  0  0  0  0  0  0  0  0  0  0  0  0  # atno 4318 bound_to 3762
   -5.0239  -21.9244   11.4037 LP  0  0  0  0  0  0  0  0  0  0  0  0  # atno 4319 bound_to 3762
   -4.5115   -5.4440    9.4336 LP  0  0  0  0  0  0  0  0  0  0  0  0  # atno 4320 bound_to 2467
   -5.4131   -5.0713    8.1242 LP  0  0  0  0  0  0  0  0  0  0  0  0  # atno 4321 bound_to 2467

> <Gold.Score>
     Score     S(PLP)   S(hbond)     S(cho)   S(metal)  DE(clash)   DE(tors)     intcor
     35.20     -26.68       2.85       0.00       0.00       0.00       0.01       0.00

> <Gold.PLP.Fitness>
35.1959

> <Gold.PLP.PLP>
-26.6783

> <Gold.PLP.part.hbond>
-2.0000

> <Gold.PLP.part.metal>
0.0000

> <Gold.PLP.part.buried>
-1.3488

> <Gold.PLP.part.nonpolar>
-24.0365

> <Gold.PLP.part.repulsive>
0.0127

> <Gold.PLP.ligand.clash>
0.0000

> <Gold.PLP.ligand.torsion>
0.0133

> <Gold.PLP.Chemscore.Hbond>
2.8480

> <Gold.PLP.Chemscore.CHOScore>
0.0000

> <Gold.PLP.Chemscore.Metal>
0.0000

> <Gold.Chemscore.Hbonds>
donor molecule, donor type, donor heavy atom, donor atom, acceptor molecule, acceptor atom, score
      L1  H    11    28       P1  1227  1.98
      P1  H  3712  3721       L1     4  0.86

> <Gold.PLP.Chemscore.Internal.Correction>
0.0002

