#       Name:                EN300-251348_i003
#       Creating user name   fsindt
#       Creation time:       Mon Feb 27 22:45:23 2023


#       File generated by GOLD software.
#

@<TRIPOS>MOLECULE
EN300-251348_i003|amine_3|mol2|1113|dock10
    28    29     1
SMALL
USER_CHARGES


@<TRIPOS>ATOM
      1 C1          -0.2001 -22.2022  12.4292 C.3            1 <1>                0.0000
      2 O2          -0.4519 -20.7771  12.5487 O.3            1 <1>                0.0000
      3 C3           0.2232 -20.1168  13.5025 C.2            1 <1>                0.0000
      4 O4           1.0277 -20.7019  14.1883 O.2            1 <1>                0.0000
      5 C5          -0.0224 -18.6457  13.7182 C.3            1 <1>                0.0000
      6 C6           0.8602 -18.1415  14.8644 C.3            1 <1>                0.0000
      7 C7           1.8046 -17.0642  14.3207 C.3            1 <1>                0.0000
      8 C8           0.9736 -15.8865  13.8003 C.3            1 <1>                0.0000
      9 C9           0.0804 -16.3820  12.6590 C.3            1 <1>                0.0000
     10 C10          0.3274 -17.8761  12.4428 C.3            1 <1>                0.0000
     11 N11          1.7318 -18.1050  12.0934 N.4            1 <1>                1.0000
     12 C12          2.6198 -17.6494  13.1660 C.3            1 <1>                0.0000
     13 H13         -0.8080 -22.6122  11.6228 H              1 <1>                0.0000
     14 H14          0.8547 -22.3675  12.2094 H              1 <1>                0.0000
     15 H15         -0.4578 -22.6964  13.3659 H              1 <1>                0.0000
     16 H16         -1.0711 -18.4838  13.9672 H              1 <1>                0.0000
     17 H17          0.2336 -17.7165  15.6485 H              1 <1>                0.0000
     18 H18          1.4434 -18.9692  15.2679 H              1 <1>                0.0000
     19 H19          2.4676 -16.7225  15.1156 H              1 <1>                0.0000
     20 H20          0.3533 -15.4927  14.6054 H              1 <1>                0.0000
     21 H21          1.6380 -15.1049  13.4317 H              1 <1>                0.0000
     22 H22         -0.9658 -16.2192  12.9180 H              1 <1>                0.0000
     23 H23          0.3199 -15.8371  11.7459 H              1 <1>                0.0000
     24 H24         -0.3001 -18.2303  11.6248 H              1 <1>                0.0000
     25 H25          3.2931 -16.8858  12.7768 H              1 <1>                0.0000
     26 H26          3.2072 -18.4923  13.5302 H              1 <1>                0.0000
     27 H27          1.8783 -19.0912  11.9383 H              1 <1>                0.0000
     28 H28          1.9491 -17.6013  11.2466 H              1 <1>                0.0000
@<TRIPOS>BOND
    1    1    2 1     
    2    1   13 1     
    3    1   14 1     
    4    1   15 1     
    5    2    3 1     
    6    3    4 2     
    7    3    5 1     
    8    5    6 1     
    9    5   10 1     
   10    5   16 1     
   11    6    7 1     
   12    6   17 1     
   13    6   18 1     
   14    7    8 1     
   15    7   12 1     
   16    7   19 1     
   17    8    9 1     
   18    8   20 1     
   19    8   21 1     
   20    9   10 1     
   21    9   22 1     
   22    9   23 1     
   23   10   11 1     
   24   10   24 1     
   25   11   12 1     
   26   11   27 1     
   27   11   28 1     
   28   12   25 1     
   29   12   26 1     
@<TRIPOS>SUBSTRUCTURE
      1 ****           1
@<TRIPOS>SET
DONOR_HYDROGENS      STATIC     ATOMS    <user>   **** ""
2 27 28
ATOM$RED        STATIC     ATOMS    COLORGROUP SYSTEM
2 27 28
@<TRIPOS>COMMENT
> <Gold.Version>
2022.2.0

> <Gold.Id.Protein>
3pbl|protein|mol2

> <Gold.Protein.RotatedTorsions>
[ 1303 1298 1297 1294 ] final  -81.75 input  179.99 | X-H torsion
[ 2461 2456 2455 2452 ] final  -10.75 input   30.03 | X-H torsion
[ 2515 2510 2509 2506 ] final   24.65 input  -89.99 | X-H torsion
[ 3721 3712 3711 3710 ] final  118.25 input -179.91 | X-H torsion
[ 3841 3832 3831 3830 ] final   20.83 input -179.91 | X-H torsion
[ 3767 3762 3761 3758 ] final -165.65 input  -89.99 | X-H torsion
[ 2472 2467 2466 2463 ] final   36.06 input  -89.97 | X-H torsion

> <Gold.Protein.ActiveResidues>
 VAL82   VAL86   LEU89   PHE106  VAL107  ASP110  VAL111  MET112  CYS114  THR115 
 CYS181  SER182  ILE183  PHE188  VAL189  ILE190  SER192  SER193  SER196  TRP342 
 PHE345  PHE346  HIS349  VAL350  TYR365  THR369  GLY372  TYR373 

> <Gold.Protein.RotatedAtoms>
    3.7240   -8.7062    3.8296 H   0  0  0  0  0  0  0  0  0  0  0  0  # atno 1303 bound_to 1298
    0.8781   -8.0559    7.0414 H   0  0  0  0  0  0  0  0  0  0  0  0  # atno 2461 bound_to 2456
   -4.2575   -4.7999    7.7217 H   0  0  0  0  0  0  0  0  0  0  0  0  # atno 2472 bound_to 2467
    2.3689   -7.4434    4.9207 H   0  0  0  0  0  0  0  0  0  0  0  0  # atno 2515 bound_to 2510
   -2.9958  -17.2562   13.0336 H   0  0  0  0  0  0  0  0  0  0  0  0  # atno 3721 bound_to 3712
   -4.2416  -22.3609   11.6322 H   0  0  0  0  0  0  0  0  0  0  0  0  # atno 3767 bound_to 3762
    1.9528  -20.7048    9.6200 H   0  0  0  0  0  0  0  0  0  0  0  0  # atno 3841 bound_to 3832
    4.9121   -9.1872    4.8412 LP  0  0  0  0  0  0  0  0  0  0  0  0  # atno 4297 bound_to 1298
    3.7262  -10.2282    4.4210 LP  0  0  0  0  0  0  0  0  0  0  0  0  # atno 4298 bound_to 1298
    0.7039   -9.2348    8.1582 LP  0  0  0  0  0  0  0  0  0  0  0  0  # atno 4299 bound_to 2456
    2.1557   -8.5173    7.9483 LP  0  0  0  0  0  0  0  0  0  0  0  0  # atno 4300 bound_to 2456
    2.8091   -8.9955    4.6701 LP  0  0  0  0  0  0  0  0  0  0  0  0  # atno 4301 bound_to 2510
    2.1187   -8.5607    6.0846 LP  0  0  0  0  0  0  0  0  0  0  0  0  # atno 4302 bound_to 2510
   -2.6341  -18.1106   14.3439 LP  0  0  0  0  0  0  0  0  0  0  0  0  # atno 4306 bound_to 3712
   -3.4349  -16.6932   14.4716 LP  0  0  0  0  0  0  0  0  0  0  0  0  # atno 4307 bound_to 3712
    1.8455  -19.6414    8.4226 LP  0  0  0  0  0  0  0  0  0  0  0  0  # atno 4314 bound_to 3832
    3.1281  -20.6467    8.5285 LP  0  0  0  0  0  0  0  0  0  0  0  0  # atno 4315 bound_to 3832
   -4.3781  -23.3284   10.3237 LP  0  0  0  0  0  0  0  0  0  0  0  0  # atno 4318 bound_to 3762
   -5.5075  -22.1856   10.6155 LP  0  0  0  0  0  0  0  0  0  0  0  0  # atno 4319 bound_to 3762
   -3.9646   -5.3152    9.2433 LP  0  0  0  0  0  0  0  0  0  0  0  0  # atno 4320 bound_to 2467
   -5.4947   -5.2784    8.6740 LP  0  0  0  0  0  0  0  0  0  0  0  0  # atno 4321 bound_to 2467

> <Gold.Score>
     Score     S(PLP)   S(hbond)     S(cho)   S(metal)  DE(clash)   DE(tors)     intcor
     34.43     -28.44       2.00       0.00       0.00       0.00       0.01       0.00

> <Gold.PLP.Fitness>
34.4321

> <Gold.PLP.PLP>
-28.4435

> <Gold.PLP.part.hbond>
-1.0000

> <Gold.PLP.part.metal>
0.0000

> <Gold.PLP.part.buried>
-3.7083

> <Gold.PLP.part.nonpolar>
-23.7093

> <Gold.PLP.part.repulsive>
0.0104

> <Gold.PLP.ligand.clash>
0.0000

> <Gold.PLP.ligand.torsion>
0.0058

> <Gold.PLP.Chemscore.Hbond>
2.0000

> <Gold.PLP.Chemscore.CHOScore>
0.0000

> <Gold.PLP.Chemscore.Metal>
0.0000

> <Gold.Chemscore.Hbonds>
donor molecule, donor type, donor heavy atom, donor atom, acceptor molecule, acceptor atom, score
      L1  H    11    28       P1  1227  2.00

> <Gold.PLP.Chemscore.Internal.Correction>
0.0002

