#       Name:                EN300-251348_i003
#       Creating user name   fsindt
#       Creation time:       Mon Feb 27 22:45:24 2023


#       File generated by GOLD software.
#

@<TRIPOS>MOLECULE
EN300-251348_i003|amine_3|mol2|1113|dock13
    28    29     1
SMALL
USER_CHARGES


@<TRIPOS>ATOM
      1 C1           1.1645 -13.5500   6.6029 C.3            1 <1>                0.0000
      2 O2           0.3865 -13.3222   7.8076 O.3            1 <1>                0.0000
      3 C3           0.4997 -12.1169   8.3873 C.2            1 <1>                0.0000
      4 O4           0.8491 -11.1626   7.7337 O.2            1 <1>                0.0000
      5 C5           0.1908 -11.9538   9.8532 C.3            1 <1>                0.0000
      6 C6           0.4367 -10.5004  10.2702 C.3            1 <1>                0.0000
      7 C7          -0.8829  -9.9017  10.7685 C.3            1 <1>                0.0000
      8 C8          -1.3528 -10.6821  12.0008 C.3            1 <1>                0.0000
      9 C9          -1.5932 -12.1398  11.5967 C.3            1 <1>                0.0000
     10 C10         -1.2761 -12.3056  10.1094 C.3            1 <1>                0.0000
     11 N11         -2.1429 -11.4328   9.3134 N.4            1 <1>                1.0000
     12 C12         -1.9368 -10.0259   9.6666 C.3            1 <1>                0.0000
     13 H13          0.9814 -14.5606   6.2378 H              1 <1>                0.0000
     14 H14          0.8716 -12.8292   5.8396 H              1 <1>                0.0000
     15 H15          2.2246 -13.4312   6.8272 H              1 <1>                0.0000
     16 H16          0.8325 -12.6140  10.4366 H              1 <1>                0.0000
     17 H17          1.1771 -10.4696  11.0695 H              1 <1>                0.0000
     18 H18          0.7964  -9.9303   9.4136 H              1 <1>                0.0000
     19 H19         -0.7342  -8.8545  11.0321 H              1 <1>                0.0000
     20 H20         -0.5866 -10.6389  12.7749 H              1 <1>                0.0000
     21 H21         -2.2800 -10.2491  12.3761 H              1 <1>                0.0000
     22 H22         -0.9453 -12.7920  12.1824 H              1 <1>                0.0000
     23 H23         -2.6356 -12.4012  11.7785 H              1 <1>                0.0000
     24 H24         -1.4550 -13.3401   9.8161 H              1 <1>                0.0000
     25 H25         -2.8771  -9.6007  10.0175 H              1 <1>                0.0000
     26 H26         -1.6033  -9.4780   8.7853 H              1 <1>                0.0000
     27 H27         -1.9352 -11.5626   8.3345 H              1 <1>                0.0000
     28 H28         -3.1067 -11.6793   9.4823 H              1 <1>                0.0000
@<TRIPOS>BOND
    1    1    2 1     
    2    1   13 1     
    3    1   14 1     
    4    1   15 1     
    5    2    3 1     
    6    3    4 2     
    7    3    5 1     
    8    5    6 1     
    9    5   10 1     
   10    5   16 1     
   11    6    7 1     
   12    6   17 1     
   13    6   18 1     
   14    7    8 1     
   15    7   12 1     
   16    7   19 1     
   17    8    9 1     
   18    8   20 1     
   19    8   21 1     
   20    9   10 1     
   21    9   22 1     
   22    9   23 1     
   23   10   11 1     
   24   10   24 1     
   25   11   12 1     
   26   11   27 1     
   27   11   28 1     
   28   12   25 1     
   29   12   26 1     
@<TRIPOS>SUBSTRUCTURE
      1 ****           1
@<TRIPOS>SET
DONOR_HYDROGENS      STATIC     ATOMS    <user>   **** ""
2 27 28
ATOM$RED        STATIC     ATOMS    COLORGROUP SYSTEM
2 27 28
@<TRIPOS>COMMENT
> <Gold.Version>
2022.2.0

> <Gold.Id.Protein>
3pbl|protein|mol2

> <Gold.Protein.RotatedTorsions>
[ 1303 1298 1297 1294 ] final -163.52 input  179.99 | X-H torsion
[ 2461 2456 2455 2452 ] final -143.95 input   30.03 | X-H torsion
[ 2515 2510 2509 2506 ] final  -40.70 input  -89.99 | X-H torsion
[ 3721 3712 3711 3710 ] final   46.02 input -179.91 | X-H torsion
[ 3841 3832 3831 3830 ] final   85.24 input -179.91 | X-H torsion
[ 3767 3762 3761 3758 ] final   30.03 input  -89.99 | X-H torsion
[ 2472 2467 2466 2463 ] final  -55.84 input  -89.97 | X-H torsion

> <Gold.Protein.ActiveResidues>
 VAL82   VAL86   LEU89   PHE106  VAL107  ASP110  VAL111  MET112  CYS114  THR115 
 CYS181  SER182  ILE183  PHE188  VAL189  ILE190  SER192  SER193  SER196  TRP342 
 PHE345  PHE346  HIS349  VAL350  TYR365  THR369  GLY372  TYR373 

> <Gold.Protein.RotatedAtoms>
    4.7413   -8.6835    4.5277 H   0  0  0  0  0  0  0  0  0  0  0  0  # atno 1303 bound_to 1298
    0.8864   -9.2791    8.2663 H   0  0  0  0  0  0  0  0  0  0  0  0  # atno 2461 bound_to 2456
   -3.6998   -5.1639    8.9021 H   0  0  0  0  0  0  0  0  0  0  0  0  # atno 2472 bound_to 2467
    2.7681   -8.1901    4.3562 H   0  0  0  0  0  0  0  0  0  0  0  0  # atno 2515 bound_to 2510
   -2.5278  -17.9902   13.5673 H   0  0  0  0  0  0  0  0  0  0  0  0  # atno 3721 bound_to 3712
   -4.9824  -23.0570   10.0646 H   0  0  0  0  0  0  0  0  0  0  0  0  # atno 3767 bound_to 3762
    2.7900  -20.9375    9.3099 H   0  0  0  0  0  0  0  0  0  0  0  0  # atno 3841 bound_to 3832
    4.2351  -10.2168    4.7702 LP  0  0  0  0  0  0  0  0  0  0  0  0  # atno 4297 bound_to 1298
    3.3855   -9.2213    3.7936 LP  0  0  0  0  0  0  0  0  0  0  0  0  # atno 4298 bound_to 1298
    2.1546   -8.3642    7.7950 LP  0  0  0  0  0  0  0  0  0  0  0  0  # atno 4299 bound_to 2456
    0.6966   -8.1651    7.0871 LP  0  0  0  0  0  0  0  0  0  0  0  0  # atno 4300 bound_to 2456
    2.4581   -9.1958    5.6045 LP  0  0  0  0  0  0  0  0  0  0  0  0  # atno 4301 bound_to 2510
    2.0703   -7.6134    5.7150 LP  0  0  0  0  0  0  0  0  0  0  0  0  # atno 4302 bound_to 2510
   -3.1004  -17.2178   14.8531 LP  0  0  0  0  0  0  0  0  0  0  0  0  # atno 4306 bound_to 3712
   -3.5089  -16.7386   13.3464 LP  0  0  0  0  0  0  0  0  0  0  0  0  # atno 4307 bound_to 3712
    1.3906  -20.1638    9.1719 LP  0  0  0  0  0  0  0  0  0  0  0  0  # atno 4314 bound_to 3832
    2.6158  -19.8555    8.1373 LP  0  0  0  0  0  0  0  0  0  0  0  0  # atno 4315 bound_to 3832
   -5.2255  -21.9207   11.2120 LP  0  0  0  0  0  0  0  0  0  0  0  0  # atno 4318 bound_to 3762
   -3.9195  -22.8975   11.2941 LP  0  0  0  0  0  0  0  0  0  0  0  0  # atno 4319 bound_to 3762
   -5.3063   -5.4014    9.0727 LP  0  0  0  0  0  0  0  0  0  0  0  0  # atno 4320 bound_to 2467
   -4.7106   -4.8283    7.6644 LP  0  0  0  0  0  0  0  0  0  0  0  0  # atno 4321 bound_to 2467

> <Gold.Score>
     Score     S(PLP)   S(hbond)     S(cho)   S(metal)  DE(clash)   DE(tors)     intcor
     38.40     -36.54       0.85       0.00       0.00       0.00       0.34       0.00

> <Gold.PLP.Fitness>
38.4007

> <Gold.PLP.PLP>
-36.5415

> <Gold.PLP.part.hbond>
-1.0000

> <Gold.PLP.part.metal>
0.0000

> <Gold.PLP.part.buried>
-3.5620

> <Gold.PLP.part.nonpolar>
-32.4308

> <Gold.PLP.part.repulsive>
0.0098

> <Gold.PLP.ligand.clash>
0.0000

> <Gold.PLP.ligand.torsion>
0.3425

> <Gold.PLP.Chemscore.Hbond>
0.8480

> <Gold.PLP.Chemscore.CHOScore>
0.0000

> <Gold.PLP.Chemscore.Metal>
0.0000

> <Gold.Chemscore.Hbonds>
donor molecule, donor type, donor heavy atom, donor atom, acceptor molecule, acceptor atom, score
      P1  H  2456  2461       L1     4  0.85

> <Gold.PLP.Chemscore.Internal.Correction>
0.0002

