#       Name:                EN300-251348_i003
#       Creating user name   fsindt
#       Creation time:       Mon Feb 27 22:45:22 2023


#       File generated by GOLD software.
#

@<TRIPOS>MOLECULE
EN300-251348_i003|amine_3|mol2|1113|dock7
    28    29     1
SMALL
USER_CHARGES


@<TRIPOS>ATOM
      1 C1           1.6570 -14.0278   8.6678 C.3            1 <1>                0.0000
      2 O2           0.2978 -13.6478   9.0090 O.3            1 <1>                0.0000
      3 C3          -0.0128 -12.3453   8.9146 C.2            1 <1>                0.0000
      4 O4           0.8287 -11.5465   8.5773 O.2            1 <1>                0.0000
      5 C5          -1.4109 -11.8794   9.2294 C.3            1 <1>                0.0000
      6 C6          -1.7720 -12.2750  10.6647 C.3            1 <1>                0.0000
      7 C7          -2.0499 -11.0016  11.4706 C.3            1 <1>                0.0000
      8 C8          -3.2500 -10.2728  10.8568 C.3            1 <1>                0.0000
      9 C9          -2.9027  -9.8804   9.4176 C.3            1 <1>                0.0000
     10 C10         -1.4847 -10.3568   9.0973 C.3            1 <1>                0.0000
     11 N11         -0.5284  -9.7313  10.0144 N.4            1 <1>                1.0000
     12 C12         -0.8238 -10.0893  11.4041 C.3            1 <1>                0.0000
     13 H13          1.7738 -15.1050   8.7866 H              1 <1>                0.0000
     14 H14          1.8627 -13.7518   7.6336 H              1 <1>                0.0000
     15 H15          2.3549 -13.5118   9.3272 H              1 <1>                0.0000
     16 H16         -2.1139 -12.3411   8.5361 H              1 <1>                0.0000
     17 H17         -2.6616 -12.9046  10.6575 H              1 <1>                0.0000
     18 H18         -0.9407 -12.8180  11.1142 H              1 <1>                0.0000
     19 H19         -2.2698 -11.2634  12.5056 H              1 <1>                0.0000
     20 H20         -4.1175 -10.9328  10.8566 H              1 <1>                0.0000
     21 H21         -3.4696  -9.3767  11.4372 H              1 <1>                0.0000
     22 H22         -3.6084 -10.3490   8.7316 H              1 <1>                0.0000
     23 H23         -2.9556  -8.7968   9.3124 H              1 <1>                0.0000
     24 H24         -1.2307 -10.0709   8.0766 H              1 <1>                0.0000
     25 H25         -1.0178  -9.1823  11.9767 H              1 <1>                0.0000
     26 H26          0.0343 -10.6066  11.8334 H              1 <1>                0.0000
     27 H27          0.4037 -10.0410   9.7833 H              1 <1>                0.0000
     28 H28         -0.5785  -8.7287   9.9125 H              1 <1>                0.0000
@<TRIPOS>BOND
    1    1    2 1     
    2    1   13 1     
    3    1   14 1     
    4    1   15 1     
    5    2    3 1     
    6    3    4 2     
    7    3    5 1     
    8    5    6 1     
    9    5   10 1     
   10    5   16 1     
   11    6    7 1     
   12    6   17 1     
   13    6   18 1     
   14    7    8 1     
   15    7   12 1     
   16    7   19 1     
   17    8    9 1     
   18    8   20 1     
   19    8   21 1     
   20    9   10 1     
   21    9   22 1     
   22    9   23 1     
   23   10   11 1     
   24   10   24 1     
   25   11   12 1     
   26   11   27 1     
   27   11   28 1     
   28   12   25 1     
   29   12   26 1     
@<TRIPOS>SUBSTRUCTURE
      1 ****           1
@<TRIPOS>SET
DONOR_HYDROGENS      STATIC     ATOMS    <user>   **** ""
2 27 28
ATOM$RED        STATIC     ATOMS    COLORGROUP SYSTEM
2 27 28
@<TRIPOS>COMMENT
> <Gold.Version>
2022.2.0

> <Gold.Id.Protein>
3pbl|protein|mol2

> <Gold.Protein.RotatedTorsions>
[ 1303 1298 1297 1294 ] final  -49.21 input  179.99 | X-H torsion
[ 2461 2456 2455 2452 ] final -154.09 input   30.03 | X-H torsion
[ 2515 2510 2509 2506 ] final  -96.95 input  -89.99 | X-H torsion
[ 3721 3712 3711 3710 ] final  -30.81 input -179.91 | X-H torsion
[ 3841 3832 3831 3830 ] final   -1.39 input -179.91 | X-H torsion
[ 3767 3762 3761 3758 ] final  -40.88 input  -89.99 | X-H torsion
[ 2472 2467 2466 2463 ] final   31.89 input  -89.97 | X-H torsion

> <Gold.Protein.ActiveResidues>
 VAL82   VAL86   LEU89   PHE106  VAL107  ASP110  VAL111  MET112  CYS114  THR115 
 CYS181  SER182  ILE183  PHE188  VAL189  ILE190  SER192  SER193  SER196  TRP342 
 PHE345  PHE346  HIS349  VAL350  TYR365  THR369  GLY372  TYR373 

> <Gold.Protein.RotatedAtoms>
    3.4181   -9.1341    3.7830 H   0  0  0  0  0  0  0  0  0  0  0  0  # atno 1303 bound_to 1298
    1.0403   -9.2887    8.3296 H   0  0  0  0  0  0  0  0  0  0  0  0  # atno 2461 bound_to 2456
   -4.1942   -4.8023    7.7478 H   0  0  0  0  0  0  0  0  0  0  0  0  # atno 2472 bound_to 2467
    2.8050   -9.0130    4.6894 H   0  0  0  0  0  0  0  0  0  0  0  0  # atno 2515 bound_to 2510
   -2.6076  -17.6909   14.5982 H   0  0  0  0  0  0  0  0  0  0  0  0  # atno 3721 bound_to 3712
   -5.5110  -22.2331   10.5529 H   0  0  0  0  0  0  0  0  0  0  0  0  # atno 3767 bound_to 3762
    1.7249  -20.4708    9.5516 H   0  0  0  0  0  0  0  0  0  0  0  0  # atno 3841 bound_to 3832
    4.7874   -8.7439    4.5825 LP  0  0  0  0  0  0  0  0  0  0  0  0  # atno 4297 bound_to 1298
    4.1569  -10.2434    4.7263 LP  0  0  0  0  0  0  0  0  0  0  0  0  # atno 4298 bound_to 1298
    2.1211   -8.2547    7.6739 LP  0  0  0  0  0  0  0  0  0  0  0  0  # atno 4299 bound_to 2456
    0.5763   -8.2649    7.1448 LP  0  0  0  0  0  0  0  0  0  0  0  0  # atno 4300 bound_to 2456
    2.1116   -8.5354    6.0883 LP  0  0  0  0  0  0  0  0  0  0  0  0  # atno 4301 bound_to 2510
    2.3799   -7.4504    4.8978 LP  0  0  0  0  0  0  0  0  0  0  0  0  # atno 4302 bound_to 2510
   -3.5577  -16.5556   13.9766 LP  0  0  0  0  0  0  0  0  0  0  0  0  # atno 4306 bound_to 3712
   -2.9595  -17.7463   13.0326 LP  0  0  0  0  0  0  0  0  0  0  0  0  # atno 4307 bound_to 3712
    2.1655  -19.6582    8.2395 LP  0  0  0  0  0  0  0  0  0  0  0  0  # atno 4314 bound_to 3832
    3.0713  -20.9002    8.7906 LP  0  0  0  0  0  0  0  0  0  0  0  0  # atno 4315 bound_to 3832
   -4.2980  -22.3074   11.6438 LP  0  0  0  0  0  0  0  0  0  0  0  0  # atno 4318 bound_to 3762
   -4.3186  -23.3344   10.3743 LP  0  0  0  0  0  0  0  0  0  0  0  0  # atno 4319 bound_to 3762
   -4.0181   -5.3348    9.2814 LP  0  0  0  0  0  0  0  0  0  0  0  0  # atno 4320 bound_to 2467
   -5.5046   -5.2563    8.6098 LP  0  0  0  0  0  0  0  0  0  0  0  0  # atno 4321 bound_to 2467

> <Gold.Score>
     Score     S(PLP)   S(hbond)     S(cho)   S(metal)  DE(clash)   DE(tors)     intcor
     40.36     -38.72       0.55       0.00       0.00       0.00       0.01       0.00

> <Gold.PLP.Fitness>
40.3616

> <Gold.PLP.PLP>
-38.7211

> <Gold.PLP.part.hbond>
-1.4918

> <Gold.PLP.part.metal>
0.0000

> <Gold.PLP.part.buried>
-2.4115

> <Gold.PLP.part.nonpolar>
-36.5505

> <Gold.PLP.part.repulsive>
0.0842

> <Gold.PLP.ligand.clash>
0.0000

> <Gold.PLP.ligand.torsion>
0.0086

> <Gold.PLP.Chemscore.Hbond>
0.5525

> <Gold.PLP.Chemscore.CHOScore>
0.0000

> <Gold.PLP.Chemscore.Metal>
0.0000

> <Gold.Chemscore.Hbonds>
donor molecule, donor type, donor heavy atom, donor atom, acceptor molecule, acceptor atom, score
      P1  H  2456  2461       L1     4  0.55

> <Gold.PLP.Chemscore.Internal.Correction>
0.0002

