#       Name:                EN300-251348_i003
#       Creating user name   fsindt
#       Creation time:       Mon Feb 27 22:45:25 2023


#       File generated by GOLD software.
#

@<TRIPOS>MOLECULE
EN300-251348_i003|amine_3|mol2|1113|dock14
    28    29     1
SMALL
USER_CHARGES


@<TRIPOS>ATOM
      1 C1          -0.8238  -9.9057  11.1009 C.3            1 <1>                0.0000
      2 O2          -1.0059 -10.8289   9.9951 O.3            1 <1>                0.0000
      3 C3           0.0948 -11.1972   9.3210 C.2            1 <1>                0.0000
      4 O4           1.1767 -10.7743   9.6536 O.2            1 <1>                0.0000
      5 C5          -0.0187 -12.1381   8.1493 C.3            1 <1>                0.0000
      6 C6           1.3814 -12.4850   7.6332 C.3            1 <1>                0.0000
      7 C7           1.5959 -13.9960   7.7711 C.3            1 <1>                0.0000
      8 C8           0.5683 -14.7288   6.9021 C.3            1 <1>                0.0000
      9 C9          -0.8364 -14.3815   7.4043 C.3            1 <1>                0.0000
     10 C10         -0.7208 -13.4236   8.5914 C.3            1 <1>                0.0000
     11 N11          0.0376 -14.0576   9.6730 N.4            1 <1>                1.0000
     12 C12          1.3926 -14.3993   9.2327 C.3            1 <1>                0.0000
     13 H13         -1.7897  -9.6912  11.5580 H              1 <1>                0.0000
     14 H14         -0.1621 -10.3533  11.8426 H              1 <1>                0.0000
     15 H15         -0.3827  -8.9797  10.7322 H              1 <1>                0.0000
     16 H16         -0.5929 -11.6626   7.3542 H              1 <1>                0.0000
     17 H17          1.4662 -12.1978   6.5852 H              1 <1>                0.0000
     18 H18          2.1297 -11.9543   8.2217 H              1 <1>                0.0000
     19 H19          2.6033 -14.2547   7.4449 H              1 <1>                0.0000
     20 H20          0.6743 -14.4118   5.8647 H              1 <1>                0.0000
     21 H21          0.7275 -15.8046   6.9762 H              1 <1>                0.0000
     22 H22         -1.4018 -13.9038   6.6041 H              1 <1>                0.0000
     23 H23         -1.3464 -15.2920   7.7190 H              1 <1>                0.0000
     24 H24         -1.7187 -13.1816   8.9574 H              1 <1>                0.0000
     25 H25          1.5447 -15.4737   9.3348 H              1 <1>                0.0000
     26 H26          2.1171 -13.8747   9.8556 H              1 <1>                0.0000
     27 H27          0.0935 -13.4225  10.4551 H              1 <1>                0.0000
     28 H28         -0.4387 -14.8984   9.9632 H              1 <1>                0.0000
@<TRIPOS>BOND
    1    1    2 1     
    2    1   13 1     
    3    1   14 1     
    4    1   15 1     
    5    2    3 1     
    6    3    4 2     
    7    3    5 1     
    8    5    6 1     
    9    5   10 1     
   10    5   16 1     
   11    6    7 1     
   12    6   17 1     
   13    6   18 1     
   14    7    8 1     
   15    7   12 1     
   16    7   19 1     
   17    8    9 1     
   18    8   20 1     
   19    8   21 1     
   20    9   10 1     
   21    9   22 1     
   22    9   23 1     
   23   10   11 1     
   24   10   24 1     
   25   11   12 1     
   26   11   27 1     
   27   11   28 1     
   28   12   25 1     
   29   12   26 1     
@<TRIPOS>SUBSTRUCTURE
      1 ****           1
@<TRIPOS>SET
DONOR_HYDROGENS      STATIC     ATOMS    <user>   **** ""
2 27 28
ATOM$RED        STATIC     ATOMS    COLORGROUP SYSTEM
2 27 28
@<TRIPOS>COMMENT
> <Gold.Version>
2022.2.0

> <Gold.Id.Protein>
3pbl|protein|mol2

> <Gold.Protein.RotatedTorsions>
[ 1303 1298 1297 1294 ] final  138.71 input  179.99 | X-H torsion
[ 2461 2456 2455 2452 ] final  178.21 input   30.03 | X-H torsion
[ 2515 2510 2509 2506 ] final  -15.53 input  -89.99 | X-H torsion
[ 3721 3712 3711 3710 ] final   34.52 input -179.91 | X-H torsion
[ 3841 3832 3831 3830 ] final -137.15 input -179.91 | X-H torsion
[ 3767 3762 3761 3758 ] final   21.28 input  -89.99 | X-H torsion
[ 2472 2467 2466 2463 ] final  149.64 input  -89.97 | X-H torsion

> <Gold.Protein.ActiveResidues>
 VAL82   VAL86   LEU89   PHE106  VAL107  ASP110  VAL111  MET112  CYS114  THR115 
 CYS181  SER182  ILE183  PHE188  VAL189  ILE190  SER192  SER193  SER196  TRP342 
 PHE345  PHE346  HIS349  VAL350  TYR365  THR369  GLY372  TYR373 

> <Gold.Protein.RotatedAtoms>
    4.8664   -9.4917    4.9283 H   0  0  0  0  0  0  0  0  0  0  0  0  # atno 1303 bound_to 1298
    1.4787   -9.2074    8.4013 H   0  0  0  0  0  0  0  0  0  0  0  0  # atno 2461 bound_to 2456
   -5.5078   -5.2449    8.5748 H   0  0  0  0  0  0  0  0  0  0  0  0  # atno 2472 bound_to 2467
    2.6410   -7.8152    4.4658 H   0  0  0  0  0  0  0  0  0  0  0  0  # atno 2515 bound_to 2510
   -2.4921  -18.0266   13.7331 H   0  0  0  0  0  0  0  0  0  0  0  0  # atno 3721 bound_to 3712
   -5.0940  -22.9662   10.0667 H   0  0  0  0  0  0  0  0  0  0  0  0  # atno 3767 bound_to 3762
    2.4582  -19.6640    8.3752 H   0  0  0  0  0  0  0  0  0  0  0  0  # atno 3841 bound_to 3832
    3.5194  -10.0860    4.2221 LP  0  0  0  0  0  0  0  0  0  0  0  0  # atno 4297 bound_to 1298
    3.9761   -8.5436    3.9410 LP  0  0  0  0  0  0  0  0  0  0  0  0  # atno 4298 bound_to 1298
    1.8962   -8.0198    7.3607 LP  0  0  0  0  0  0  0  0  0  0  0  0  # atno 4299 bound_to 2456
    0.3629   -8.5812    7.3863 LP  0  0  0  0  0  0  0  0  0  0  0  0  # atno 4300 bound_to 2456
    2.6270   -9.2555    5.2347 LP  0  0  0  0  0  0  0  0  0  0  0  0  # atno 4301 bound_to 2510
    2.0286   -7.9287    5.9751 LP  0  0  0  0  0  0  0  0  0  0  0  0  # atno 4302 bound_to 2510
   -3.1958  -17.0589   14.8037 LP  0  0  0  0  0  0  0  0  0  0  0  0  # atno 4306 bound_to 3712
   -3.4546  -16.8554   13.2042 LP  0  0  0  0  0  0  0  0  0  0  0  0  # atno 4307 bound_to 3712
    2.9289  -21.0569    9.0191 LP  0  0  0  0  0  0  0  0  0  0  0  0  # atno 4314 bound_to 3832
    1.4609  -20.4335    9.3699 LP  0  0  0  0  0  0  0  0  0  0  0  0  # atno 4315 bound_to 3832
   -5.1261  -21.9148   11.3159 LP  0  0  0  0  0  0  0  0  0  0  0  0  # atno 4318 bound_to 3762
   -3.9074  -22.9942   11.1882 LP  0  0  0  0  0  0  0  0  0  0  0  0  # atno 4319 bound_to 3762
   -4.1609   -4.8037    7.7639 LP  0  0  0  0  0  0  0  0  0  0  0  0  # atno 4320 bound_to 2467
   -4.0484   -5.3450    9.3004 LP  0  0  0  0  0  0  0  0  0  0  0  0  # atno 4321 bound_to 2467

> <Gold.Score>
     Score     S(PLP)   S(hbond)     S(cho)   S(metal)  DE(clash)   DE(tors)     intcor
     38.94     -36.02       1.00       0.00       0.00       0.00       0.04       0.00

> <Gold.PLP.Fitness>
38.9390

> <Gold.PLP.PLP>
-36.0183

> <Gold.PLP.part.hbond>
-1.0000

> <Gold.PLP.part.metal>
0.0000

> <Gold.PLP.part.buried>
-3.9139

> <Gold.PLP.part.nonpolar>
-32.3299

> <Gold.PLP.part.repulsive>
0.0167

> <Gold.PLP.ligand.clash>
0.0000

> <Gold.PLP.ligand.torsion>
0.0398

> <Gold.PLP.Chemscore.Hbond>
1.0000

> <Gold.PLP.Chemscore.CHOScore>
0.0000

> <Gold.PLP.Chemscore.Metal>
0.0000

> <Gold.Chemscore.Hbonds>
donor molecule, donor type, donor heavy atom, donor atom, acceptor molecule, acceptor atom, score
      P1  H  2456  2461       L1     4  1.00

> <Gold.PLP.Chemscore.Internal.Correction>
0.0002

