#       Name:                EN300-251348_i003
#       Creating user name   fsindt
#       Creation time:       Mon Feb 27 22:45:22 2023


#       File generated by GOLD software.
#

@<TRIPOS>MOLECULE
EN300-251348_i003|amine_3|mol2|1113|dock8
    28    29     1
SMALL
USER_CHARGES


@<TRIPOS>ATOM
      1 C1           1.4635 -22.5752  14.3489 C.3            1 <1>                0.0000
      2 O2           1.0833 -21.2076  14.6543 O.3            1 <1>                0.0000
      3 C3           1.0673 -20.3369  13.6329 C.2            1 <1>                0.0000
      4 O4           1.4000 -20.6956  12.5281 O.2            1 <1>                0.0000
      5 C5           0.6344 -18.9121  13.8640 C.3            1 <1>                0.0000
      6 C6           1.5653 -18.2532  14.8870 C.3            1 <1>                0.0000
      7 C7           2.2663 -17.0649  14.2202 C.3            1 <1>                0.0000
      8 C8           1.2128 -16.0358  13.7965 C.3            1 <1>                0.0000
      9 C9           0.2708 -16.6875  12.7797 C.3            1 <1>                0.0000
     10 C10          0.7084 -18.1349  12.5481 C.3            1 <1>                0.0000
     11 N11          2.0782 -18.1657  12.0289 N.4            1 <1>                1.0000
     12 C12          3.0127 -17.5561  12.9785 C.3            1 <1>                0.0000
     13 H13          1.4353 -23.1724  15.2604 H              1 <1>                0.0000
     14 H14          0.7681 -22.9915  13.6201 H              1 <1>                0.0000
     15 H15          2.4726 -22.5884  13.9371 H              1 <1>                0.0000
     16 H16         -0.3885 -18.8982  14.2400 H              1 <1>                0.0000
     17 H17          0.9826 -17.9030  15.7390 H              1 <1>                0.0000
     18 H18          2.3095 -18.9755  15.2223 H              1 <1>                0.0000
     19 H19          2.9630 -16.6084  14.9233 H              1 <1>                0.0000
     20 H20          0.6436 -15.7149  14.6689 H              1 <1>                0.0000
     21 H21          1.7041 -15.1760  13.3411 H              1 <1>                0.0000
     22 H22         -0.7486 -16.6721  13.1653 H              1 <1>                0.0000
     23 H23          0.3140 -16.1387  11.8389 H              1 <1>                0.0000
     24 H24          0.0456 -18.5991  11.8177 H              1 <1>                0.0000
     25 H25          3.5129 -16.7133  12.5016 H              1 <1>                0.0000
     26 H26          3.7585 -18.2939  13.2746 H              1 <1>                0.0000
     27 H27          2.3494 -19.1238  11.8657 H              1 <1>                0.0000
     28 H28          2.1138 -17.6590  11.1571 H              1 <1>                0.0000
@<TRIPOS>BOND
    1    1    2 1     
    2    1   13 1     
    3    1   14 1     
    4    1   15 1     
    5    2    3 1     
    6    3    4 2     
    7    3    5 1     
    8    5    6 1     
    9    5   10 1     
   10    5   16 1     
   11    6    7 1     
   12    6   17 1     
   13    6   18 1     
   14    7    8 1     
   15    7   12 1     
   16    7   19 1     
   17    8    9 1     
   18    8   20 1     
   19    8   21 1     
   20    9   10 1     
   21    9   22 1     
   22    9   23 1     
   23   10   11 1     
   24   10   24 1     
   25   11   12 1     
   26   11   27 1     
   27   11   28 1     
   28   12   25 1     
   29   12   26 1     
@<TRIPOS>SUBSTRUCTURE
      1 ****           1
@<TRIPOS>SET
DONOR_HYDROGENS      STATIC     ATOMS    <user>   **** ""
2 27 28
ATOM$RED        STATIC     ATOMS    COLORGROUP SYSTEM
2 27 28
@<TRIPOS>COMMENT
> <Gold.Version>
2022.2.0

> <Gold.Id.Protein>
3pbl|protein|mol2

> <Gold.Protein.RotatedTorsions>
[ 1303 1298 1297 1294 ] final   84.86 input  179.99 | X-H torsion
[ 2461 2456 2455 2452 ] final  -42.71 input   30.03 | X-H torsion
[ 2515 2510 2509 2506 ] final   -4.50 input  -89.99 | X-H torsion
[ 3721 3712 3711 3710 ] final -116.02 input -179.91 | X-H torsion
[ 3841 3832 3831 3830 ] final   41.16 input -179.91 | X-H torsion
[ 3767 3762 3761 3758 ] final   83.41 input  -89.99 | X-H torsion
[ 2472 2467 2466 2463 ] final -121.78 input  -89.97 | X-H torsion

> <Gold.Protein.ActiveResidues>
 VAL82   VAL86   LEU89   PHE106  VAL107  ASP110  VAL111  MET112  CYS114  THR115 
 CYS181  SER182  ILE183  PHE188  VAL189  ILE190  SER192  SER193  SER196  TRP342 
 PHE345  PHE346  HIS349  VAL350  TYR365  THR369  GLY372  TYR373 

> <Gold.Protein.RotatedAtoms>
    4.3477  -10.1622    4.8280 H   0  0  0  0  0  0  0  0  0  0  0  0  # atno 1303 bound_to 1298
    0.4901   -8.3581    7.2079 H   0  0  0  0  0  0  0  0  0  0  0  0  # atno 2461 bound_to 2456
   -4.5305   -5.4469    9.4338 H   0  0  0  0  0  0  0  0  0  0  0  0  # atno 2472 bound_to 2467
    2.5711   -7.6783    4.5616 H   0  0  0  0  0  0  0  0  0  0  0  0  # atno 2515 bound_to 2510
   -3.1958  -16.6869   14.4523 H   0  0  0  0  0  0  0  0  0  0  0  0  # atno 3721 bound_to 3712
   -4.2667  -23.3353   10.4223 H   0  0  0  0  0  0  0  0  0  0  0  0  # atno 3767 bound_to 3762
    2.2135  -20.8627    9.6000 H   0  0  0  0  0  0  0  0  0  0  0  0  # atno 3841 bound_to 3832
    3.3508   -9.3518    3.8201 LP  0  0  0  0  0  0  0  0  0  0  0  0  # atno 4297 bound_to 1298
    4.6636   -8.6070    4.4434 LP  0  0  0  0  0  0  0  0  0  0  0  0  # atno 4298 bound_to 1298
    1.1764   -9.2799    8.3683 LP  0  0  0  0  0  0  0  0  0  0  0  0  # atno 4299 bound_to 2456
    2.0711   -8.1700    7.5718 LP  0  0  0  0  0  0  0  0  0  0  0  0  # atno 4300 bound_to 2456
    2.6911   -9.2259    5.0678 LP  0  0  0  0  0  0  0  0  0  0  0  0  # atno 4301 bound_to 2510
    2.0345   -8.0953    6.0462 LP  0  0  0  0  0  0  0  0  0  0  0  0  # atno 4302 bound_to 2510
   -3.2228  -17.2968   12.9673 LP  0  0  0  0  0  0  0  0  0  0  0  0  # atno 4306 bound_to 3712
   -2.6153  -18.1642   14.2104 LP  0  0  0  0  0  0  0  0  0  0  0  0  # atno 4307 bound_to 3712
    1.6056  -19.7245    8.6455 LP  0  0  0  0  0  0  0  0  0  0  0  0  # atno 4314 bound_to 3832
    3.0668  -20.3812    8.3287 LP  0  0  0  0  0  0  0  0  0  0  0  0  # atno 4315 bound_to 3832
   -5.5099  -22.2792   10.4993 LP  0  0  0  0  0  0  0  0  0  0  0  0  # atno 4318 bound_to 3762
   -4.3506  -22.2609   11.6493 LP  0  0  0  0  0  0  0  0  0  0  0  0  # atno 4319 bound_to 3762
   -5.4046   -5.0647    8.1085 LP  0  0  0  0  0  0  0  0  0  0  0  0  # atno 4320 bound_to 2467
   -3.7819   -4.8820    8.0970 LP  0  0  0  0  0  0  0  0  0  0  0  0  # atno 4321 bound_to 2467

> <Gold.Score>
     Score     S(PLP)   S(hbond)     S(cho)   S(metal)  DE(clash)   DE(tors)     intcor
     36.49     -30.65       1.95       0.00       0.00       0.00       0.01       0.00

> <Gold.PLP.Fitness>
36.4950

> <Gold.PLP.PLP>
-30.6490

> <Gold.PLP.part.hbond>
-1.0000

> <Gold.PLP.part.metal>
0.0000

> <Gold.PLP.part.buried>
-4.2619

> <Gold.PLP.part.nonpolar>
-26.0942

> <Gold.PLP.part.repulsive>
0.0460

> <Gold.PLP.ligand.clash>
0.0000

> <Gold.PLP.ligand.torsion>
0.0051

> <Gold.PLP.Chemscore.Hbond>
1.9520

> <Gold.PLP.Chemscore.CHOScore>
0.0000

> <Gold.PLP.Chemscore.Metal>
0.0000

> <Gold.Chemscore.Hbonds>
donor molecule, donor type, donor heavy atom, donor atom, acceptor molecule, acceptor atom, score
      L1  H    11    28       P1  1227  1.95

> <Gold.PLP.Chemscore.Internal.Correction>
0.0002

