#       Name:                EN300-251348_i003
#       Creating user name   fsindt
#       Creation time:       Mon Feb 27 22:45:20 2023


#       File generated by GOLD software.
#

@<TRIPOS>MOLECULE
EN300-251348_i003|amine_3|mol2|1113|dock4
    28    29     1
SMALL
USER_CHARGES


@<TRIPOS>ATOM
      1 C1           1.4255 -12.5950   6.7555 C.3            1 <1>                0.0000
      2 O2           0.1823 -12.7149   7.4960 O.3            1 <1>                0.0000
      3 C3          -0.0117 -11.8513   8.5051 C.2            1 <1>                0.0000
      4 O4           0.8762 -11.1030   8.8390 O.2            1 <1>                0.0000
      5 C5          -1.3370 -11.8150   9.2215 C.3            1 <1>                0.0000
      6 C6          -1.1492 -12.2760  10.6703 C.3            1 <1>                0.0000
      7 C7          -1.5440 -11.1289  11.6065 C.3            1 <1>                0.0000
      8 C8          -3.0254 -10.7983  11.3958 C.3            1 <1>                0.0000
      9 C9          -3.2260 -10.3444   9.9467 C.3            1 <1>                0.0000
     10 C10         -1.8811 -10.3849   9.2189 C.3            1 <1>                0.0000
     11 N11         -0.9282  -9.4893   9.8798 N.4            1 <1>                1.0000
     12 C12         -0.7039  -9.8957  11.2694 C.3            1 <1>                0.0000
     13 H13          1.4550 -13.3503   5.9702 H              1 <1>                0.0000
     14 H14          1.4877 -11.6030   6.3081 H              1 <1>                0.0000
     15 H15          2.2672 -12.7417   7.4324 H              1 <1>                0.0000
     16 H16         -2.0423 -12.4756   8.7172 H              1 <1>                0.0000
     17 H17         -1.7837 -13.1408  10.8639 H              1 <1>                0.0000
     18 H18         -0.1052 -12.5410  10.8370 H              1 <1>                0.0000
     19 H19         -1.3783 -11.4269  12.6418 H              1 <1>                0.0000
     20 H20         -3.6289 -11.6854  11.5879 H              1 <1>                0.0000
     21 H21         -3.3214  -9.9979  12.0739 H              1 <1>                0.0000
     22 H22         -3.9297 -11.0123   9.4497 H              1 <1>                0.0000
     23 H23         -3.6167  -9.3269   9.9343 H              1 <1>                0.0000
     24 H24         -2.0185 -10.0535   8.1896 H              1 <1>                0.0000
     25 H25         -0.9820  -9.0775  11.9338 H              1 <1>                0.0000
     26 H26          0.3514 -10.1286  11.4111 H              1 <1>                0.0000
     27 H27         -0.0509  -9.5129   9.3818 H              1 <1>                0.0000
     28 H28         -1.2920  -8.5483   9.8641 H              1 <1>                0.0000
@<TRIPOS>BOND
    1    1    2 1     
    2    1   13 1     
    3    1   14 1     
    4    1   15 1     
    5    2    3 1     
    6    3    4 2     
    7    3    5 1     
    8    5    6 1     
    9    5   10 1     
   10    5   16 1     
   11    6    7 1     
   12    6   17 1     
   13    6   18 1     
   14    7    8 1     
   15    7   12 1     
   16    7   19 1     
   17    8    9 1     
   18    8   20 1     
   19    8   21 1     
   20    9   10 1     
   21    9   22 1     
   22    9   23 1     
   23   10   11 1     
   24   10   24 1     
   25   11   12 1     
   26   11   27 1     
   27   11   28 1     
   28   12   25 1     
   29   12   26 1     
@<TRIPOS>SUBSTRUCTURE
      1 ****           1
@<TRIPOS>SET
DONOR_HYDROGENS      STATIC     ATOMS    <user>   **** ""
2 27 28
ATOM$RED        STATIC     ATOMS    COLORGROUP SYSTEM
2 27 28
@<TRIPOS>COMMENT
> <Gold.Version>
2022.2.0

> <Gold.Id.Protein>
3pbl|protein|mol2

> <Gold.Protein.RotatedTorsions>
[ 1303 1298 1297 1294 ] final  160.18 input  179.99 | X-H torsion
[ 2461 2456 2455 2452 ] final -160.32 input   30.03 | X-H torsion
[ 2515 2510 2509 2506 ] final  155.43 input  -89.99 | X-H torsion
[ 3721 3712 3711 3710 ] final  -92.81 input -179.91 | X-H torsion
[ 3841 3832 3831 3830 ] final   -6.03 input -179.91 | X-H torsion
[ 3767 3762 3761 3758 ] final  129.68 input  -89.99 | X-H torsion
[ 2472 2467 2466 2463 ] final  -61.00 input  -89.97 | X-H torsion

> <Gold.Protein.ActiveResidues>
 VAL82   VAL86   LEU89   PHE106  VAL107  ASP110  VAL111  MET112  CYS114  THR115 
 CYS181  SER182  ILE183  PHE188  VAL189  ILE190  SER192  SER193  SER196  TRP342 
 PHE345  PHE346  HIS349  VAL350  TYR365  THR369  GLY372  TYR373 

> <Gold.Protein.RotatedAtoms>
    4.9112   -9.1577    4.8297 H   0  0  0  0  0  0  0  0  0  0  0  0  # atno 1303 bound_to 1298
    1.1383   -9.2841    8.3592 H   0  0  0  0  0  0  0  0  0  0  0  0  # atno 2461 bound_to 2456
   -3.7342   -5.1935    8.9737 H   0  0  0  0  0  0  0  0  0  0  0  0  # atno 2472 bound_to 2467
    2.1720   -8.7242    6.0421 H   0  0  0  0  0  0  0  0  0  0  0  0  # atno 2515 bound_to 2510
   -3.0452  -16.9164   14.6670 H   0  0  0  0  0  0  0  0  0  0  0  0  # atno 3721 bound_to 3712
   -3.9195  -23.1083   11.0363 H   0  0  0  0  0  0  0  0  0  0  0  0  # atno 3767 bound_to 3762
    1.6881  -20.4169    9.5261 H   0  0  0  0  0  0  0  0  0  0  0  0  # atno 3841 bound_to 3832
    3.7493  -10.2370    4.4405 LP  0  0  0  0  0  0  0  0  0  0  0  0  # atno 4297 bound_to 1298
    3.7014   -8.7268    3.8212 LP  0  0  0  0  0  0  0  0  0  0  0  0  # atno 4298 bound_to 1298
    2.0869   -8.1926    7.5999 LP  0  0  0  0  0  0  0  0  0  0  0  0  # atno 4299 bound_to 2456
    0.5125   -8.3317    7.1892 LP  0  0  0  0  0  0  0  0  0  0  0  0  # atno 4300 bound_to 2456
    2.2953   -7.4118    5.0787 LP  0  0  0  0  0  0  0  0  0  0  0  0  # atno 4301 bound_to 2510
    2.8295   -8.8630    4.5541 LP  0  0  0  0  0  0  0  0  0  0  0  0  # atno 4302 bound_to 2510
   -3.3934  -16.9783   13.1009 LP  0  0  0  0  0  0  0  0  0  0  0  0  # atno 4306 bound_to 3712
   -2.6185  -18.2177   13.8289 LP  0  0  0  0  0  0  0  0  0  0  0  0  # atno 4307 bound_to 3712
    2.2357  -19.6760    8.2119 LP  0  0  0  0  0  0  0  0  0  0  0  0  # atno 4314 bound_to 3832
    3.0436  -20.9447    8.8477 LP  0  0  0  0  0  0  0  0  0  0  0  0  # atno 4315 bound_to 3832
   -5.2279  -22.8344   10.0982 LP  0  0  0  0  0  0  0  0  0  0  0  0  # atno 4318 bound_to 3762
   -4.9797  -21.9325   11.4367 LP  0  0  0  0  0  0  0  0  0  0  0  0  # atno 4319 bound_to 3762
   -5.3558   -5.3829    9.0064 LP  0  0  0  0  0  0  0  0  0  0  0  0  # atno 4320 bound_to 2467
   -4.6268   -4.8171    7.6591 LP  0  0  0  0  0  0  0  0  0  0  0  0  # atno 4321 bound_to 2467

> <Gold.Score>
     Score     S(PLP)   S(hbond)     S(cho)   S(metal)  DE(clash)   DE(tors)     intcor
     44.30     -41.53       1.00       0.00       0.00       0.00       0.12       0.00

> <Gold.PLP.Fitness>
44.2990

> <Gold.PLP.PLP>
-41.5334

> <Gold.PLP.part.hbond>
-2.0000

> <Gold.PLP.part.metal>
0.0000

> <Gold.PLP.part.buried>
-2.7338

> <Gold.PLP.part.nonpolar>
-37.5590

> <Gold.PLP.part.repulsive>
0.0953

> <Gold.PLP.ligand.clash>
0.0000

> <Gold.PLP.ligand.torsion>
0.1174

> <Gold.PLP.Chemscore.Hbond>
1.0000

> <Gold.PLP.Chemscore.CHOScore>
0.0000

> <Gold.PLP.Chemscore.Metal>
0.0000

> <Gold.Chemscore.Hbonds>
donor molecule, donor type, donor heavy atom, donor atom, acceptor molecule, acceptor atom, score
      P1  H  2456  2461       L1     4  1.00

> <Gold.PLP.Chemscore.Internal.Correction>
0.0004

