#       Name:                EN300-251348_i003
#       Creating user name   fsindt
#       Creation time:       Mon Feb 27 22:45:21 2023


#       File generated by GOLD software.
#

@<TRIPOS>MOLECULE
EN300-251348_i003|amine_3|mol2|1113|dock6
    28    29     1
SMALL
USER_CHARGES


@<TRIPOS>ATOM
      1 C1           1.0520 -14.7798   7.5579 C.3            1 <1>                0.0000
      2 O2          -0.0759 -13.9560   7.9547 O.3            1 <1>                0.0000
      3 C3          -0.1610 -13.6233   9.2523 C.2            1 <1>                0.0000
      4 O4           0.6756 -14.0132  10.0321 O.2            1 <1>                0.0000
      5 C5          -1.2999 -12.7635   9.7367 C.3            1 <1>                0.0000
      6 C6          -1.1493 -12.5131  11.2405 C.3            1 <1>                0.0000
      7 C7          -0.9971 -11.0065  11.4753 C.3            1 <1>                0.0000
      8 C8          -2.2658 -10.2942  10.9943 C.3            1 <1>                0.0000
      9 C9          -2.4308 -10.5458   9.4925 C.3            1 <1>                0.0000
     10 C10         -1.2764 -11.4216   9.0020 C.3            1 <1>                0.0000
     11 N11          0.0010 -10.7454   9.2426 N.4            1 <1>                1.0000
     12 C12          0.1993 -10.4929  10.6721 C.3            1 <1>                0.0000
     13 H13          1.0006 -14.9747   6.4867 H              1 <1>                0.0000
     14 H14          1.9813 -14.2588   7.7883 H              1 <1>                0.0000
     15 H15          1.0208 -15.7244   8.1009 H              1 <1>                0.0000
     16 H16         -2.2460 -13.2694   9.5443 H              1 <1>                0.0000
     17 H17         -2.0346 -12.8767  11.7621 H              1 <1>                0.0000
     18 H18         -0.2652 -13.0319  11.6107 H              1 <1>                0.0000
     19 H19         -0.8488 -10.8140  12.5379 H              1 <1>                0.0000
     20 H20         -3.1307 -10.6879  11.5281 H              1 <1>                0.0000
     21 H21         -2.1760  -9.2236  11.1779 H              1 <1>                0.0000
     22 H22         -3.3774 -11.0546   9.3100 H              1 <1>                0.0000
     23 H23         -2.4185  -9.5947   8.9601 H              1 <1>                0.0000
     24 H24         -1.3856 -11.5950   7.9314 H              1 <1>                0.0000
     25 H25          0.3109  -9.4212  10.8370 H              1 <1>                0.0000
     26 H26          1.1032 -11.0022  11.0062 H              1 <1>                0.0000
     27 H27          0.7526 -11.3255   8.9010 H              1 <1>                0.0000
     28 H28          0.0097  -9.8668   8.7464 H              1 <1>                0.0000
@<TRIPOS>BOND
    1    1    2 1     
    2    1   13 1     
    3    1   14 1     
    4    1   15 1     
    5    2    3 1     
    6    3    4 2     
    7    3    5 1     
    8    5    6 1     
    9    5   10 1     
   10    5   16 1     
   11    6    7 1     
   12    6   17 1     
   13    6   18 1     
   14    7    8 1     
   15    7   12 1     
   16    7   19 1     
   17    8    9 1     
   18    8   20 1     
   19    8   21 1     
   20    9   10 1     
   21    9   22 1     
   22    9   23 1     
   23   10   11 1     
   24   10   24 1     
   25   11   12 1     
   26   11   27 1     
   27   11   28 1     
   28   12   25 1     
   29   12   26 1     
@<TRIPOS>SUBSTRUCTURE
      1 ****           1
@<TRIPOS>SET
DONOR_HYDROGENS      STATIC     ATOMS    <user>   **** ""
2 27 28
ATOM$RED        STATIC     ATOMS    COLORGROUP SYSTEM
2 27 28
@<TRIPOS>COMMENT
> <Gold.Version>
2022.2.0

> <Gold.Id.Protein>
3pbl|protein|mol2

> <Gold.Protein.RotatedTorsions>
[ 1303 1298 1297 1294 ] final  101.51 input  179.99 | X-H torsion
[ 2461 2456 2455 2452 ] final   92.59 input   30.03 | X-H torsion
[ 2515 2510 2509 2506 ] final -120.66 input  -89.99 | X-H torsion
[ 3721 3712 3711 3710 ] final -150.04 input -179.91 | X-H torsion
[ 3841 3832 3831 3830 ] final   85.61 input -179.91 | X-H torsion
[ 3767 3762 3761 3758 ] final   51.86 input  -89.99 | X-H torsion
[ 2472 2467 2466 2463 ] final  -90.57 input  -89.97 | X-H torsion

> <Gold.Protein.ActiveResidues>
 VAL82   VAL86   LEU89   PHE106  VAL107  ASP110  VAL111  MET112  CYS114  THR115 
 CYS181  SER182  ILE183  PHE188  VAL189  ILE190  SER192  SER193  SER196  TRP342 
 PHE345  PHE346  HIS349  VAL350  TYR365  THR369  GLY372  TYR373 

> <Gold.Protein.RotatedAtoms>
    4.5553  -10.0059    4.9116 H   0  0  0  0  0  0  0  0  0  0  0  0  # atno 1303 bound_to 1298
    2.1466   -8.3257    7.7538 H   0  0  0  0  0  0  0  0  0  0  0  0  # atno 2461 bound_to 2456
   -4.0511   -5.3467    9.3019 H   0  0  0  0  0  0  0  0  0  0  0  0  # atno 2472 bound_to 2467
    2.7113   -9.2074    5.0109 H   0  0  0  0  0  0  0  0  0  0  0  0  # atno 2515 bound_to 2510
   -3.3262  -16.5314   13.9879 H   0  0  0  0  0  0  0  0  0  0  0  0  # atno 3721 bound_to 3712
   -4.6824  -23.2358   10.1391 H   0  0  0  0  0  0  0  0  0  0  0  0  # atno 3767 bound_to 3762
    2.7942  -20.9365    9.3064 H   0  0  0  0  0  0  0  0  0  0  0  0  # atno 3841 bound_to 3832
    3.3309   -9.6101    3.9065 LP  0  0  0  0  0  0  0  0  0  0  0  0  # atno 4297 bound_to 1298
    4.4758   -8.5051    4.2733 LP  0  0  0  0  0  0  0  0  0  0  0  0  # atno 4298 bound_to 1298
    0.6534   -8.1978    7.1047 LP  0  0  0  0  0  0  0  0  0  0  0  0  # atno 4299 bound_to 2456
    0.9380   -9.2846    8.2897 LP  0  0  0  0  0  0  0  0  0  0  0  0  # atno 4300 bound_to 2456
    2.0400   -8.1555    6.0639 LP  0  0  0  0  0  0  0  0  0  0  0  0  # atno 4301 bound_to 2510
    2.5453   -7.6358    4.6006 LP  0  0  0  0  0  0  0  0  0  0  0  0  # atno 4302 bound_to 2510
   -2.9418  -17.7747   13.0476 LP  0  0  0  0  0  0  0  0  0  0  0  0  # atno 4306 bound_to 3712
   -2.7457  -17.8659   14.6662 LP  0  0  0  0  0  0  0  0  0  0  0  0  # atno 4307 bound_to 3712
    1.3909  -20.1684    9.1759 LP  0  0  0  0  0  0  0  0  0  0  0  0  # atno 4314 bound_to 3832
    2.6108  -19.8521    8.1374 LP  0  0  0  0  0  0  0  0  0  0  0  0  # atno 4315 bound_to 3832
   -5.4168  -22.0056   10.9227 LP  0  0  0  0  0  0  0  0  0  0  0  0  # atno 4318 bound_to 3762
   -4.0282  -22.6339   11.5090 LP  0  0  0  0  0  0  0  0  0  0  0  0  # atno 4319 bound_to 3762
   -5.5081   -5.2430    8.5718 LP  0  0  0  0  0  0  0  0  0  0  0  0  # atno 4320 bound_to 2467
   -4.1576   -4.8039    7.7655 LP  0  0  0  0  0  0  0  0  0  0  0  0  # atno 4321 bound_to 2467

> <Gold.Score>
     Score     S(PLP)   S(hbond)     S(cho)   S(metal)  DE(clash)   DE(tors)     intcor
     40.01     -37.79       0.74       0.00       0.00       0.00       0.00       0.00

> <Gold.PLP.Fitness>
40.0134

> <Gold.PLP.PLP>
-37.7889

> <Gold.PLP.part.hbond>
-1.0000

> <Gold.PLP.part.metal>
0.0000

> <Gold.PLP.part.buried>
-4.5817

> <Gold.PLP.part.nonpolar>
-33.5071

> <Gold.PLP.part.repulsive>
0.0700

> <Gold.PLP.ligand.clash>
0.0000

> <Gold.PLP.ligand.torsion>
0.0015

> <Gold.PLP.Chemscore.Hbond>
0.7424

> <Gold.PLP.Chemscore.CHOScore>
0.0000

> <Gold.PLP.Chemscore.Metal>
0.0000

> <Gold.Chemscore.Hbonds>
donor molecule, donor type, donor heavy atom, donor atom, acceptor molecule, acceptor atom, score
      L1  H    11    28       P1  2456  0.74

> <Gold.PLP.Chemscore.Internal.Correction>
0.0002

