#       Name:                EN300-251348_i003
#       Creating user name   fsindt
#       Creation time:       Mon Feb 27 22:45:25 2023


#       File generated by GOLD software.
#

@<TRIPOS>MOLECULE
EN300-251348_i003|amine_3|mol2|1113|dock15
    28    29     1
SMALL
USER_CHARGES


@<TRIPOS>ATOM
      1 C1           1.3978 -12.3061   6.7287 C.3            1 <1>                0.0000
      2 O2           0.3345 -11.7725   7.5612 O.3            1 <1>                0.0000
      3 C3          -0.2807 -12.6316   8.3889 C.2            1 <1>                0.0000
      4 O4           0.0975 -13.7769   8.4611 O.2            1 <1>                0.0000
      5 C5          -1.4432 -12.1676   9.2283 C.3            1 <1>                0.0000
      6 C6          -1.1639 -12.4722  10.7035 C.3            1 <1>                0.0000
      7 C7          -1.1382 -11.1524  11.4818 C.3            1 <1>                0.0000
      8 C8          -2.5140 -10.4851  11.3811 C.3            1 <1>                0.0000
      9 C9          -2.8072 -10.1842   9.9082 C.3            1 <1>                0.0000
     10 C10         -1.6286 -10.6586   9.0562 C.3            1 <1>                0.0000
     11 N11         -0.4065  -9.9583   9.4599 N.4            1 <1>                1.0000
     12 C12         -0.0878 -10.2274  10.8644 C.3            1 <1>                0.0000
     13 H13          1.8091 -11.5090   6.1094 H              1 <1>                0.0000
     14 H14          2.1841 -12.7164   7.3624 H              1 <1>                0.0000
     15 H15          0.9984 -13.0935   6.0895 H              1 <1>                0.0000
     16 H16         -2.3493 -12.6856   8.9143 H              1 <1>                0.0000
     17 H17         -1.9503 -13.1148  11.0993 H              1 <1>                0.0000
     18 H18         -0.1993 -12.9708  10.7974 H              1 <1>                0.0000
     19 H19         -0.9010 -11.3479  12.5276 H              1 <1>                0.0000
     20 H20         -3.2760 -11.1572  11.7756 H              1 <1>                0.0000
     21 H21         -2.5122  -9.5558  11.9507 H              1 <1>                0.0000
     22 H22         -3.7125 -10.7087   9.6022 H              1 <1>                0.0000
     23 H23         -2.9441  -9.1110   9.7756 H              1 <1>                0.0000
     24 H24         -1.8298 -10.4375   8.0079 H              1 <1>                0.0000
     25 H25         -0.0665  -9.2874  11.4158 H              1 <1>                0.0000
     26 H26          0.8918 -10.7014  10.9275 H              1 <1>                0.0000
     27 H27          0.3597 -10.2681   8.8809 H              1 <1>                0.0000
     28 H28         -0.5360  -8.9657   9.3336 H              1 <1>                0.0000
@<TRIPOS>BOND
    1    1    2 1     
    2    1   13 1     
    3    1   14 1     
    4    1   15 1     
    5    2    3 1     
    6    3    4 2     
    7    3    5 1     
    8    5    6 1     
    9    5   10 1     
   10    5   16 1     
   11    6    7 1     
   12    6   17 1     
   13    6   18 1     
   14    7    8 1     
   15    7   12 1     
   16    7   19 1     
   17    8    9 1     
   18    8   20 1     
   19    8   21 1     
   20    9   10 1     
   21    9   22 1     
   22    9   23 1     
   23   10   11 1     
   24   10   24 1     
   25   11   12 1     
   26   11   27 1     
   27   11   28 1     
   28   12   25 1     
   29   12   26 1     
@<TRIPOS>SUBSTRUCTURE
      1 ****           1
@<TRIPOS>SET
DONOR_HYDROGENS      STATIC     ATOMS    <user>   **** ""
2 27 28
ATOM$RED        STATIC     ATOMS    COLORGROUP SYSTEM
2 27 28
@<TRIPOS>COMMENT
> <Gold.Version>
2022.2.0

> <Gold.Id.Protein>
3pbl|protein|mol2

> <Gold.Protein.RotatedTorsions>
[ 1303 1298 1297 1294 ] final  -37.68 input  179.99 | X-H torsion
[ 2461 2456 2455 2452 ] final  102.12 input   30.03 | X-H torsion
[ 2515 2510 2509 2506 ] final  145.75 input  -89.99 | X-H torsion
[ 3721 3712 3711 3710 ] final    7.17 input -179.91 | X-H torsion
[ 3841 3832 3831 3830 ] final  -42.55 input -179.91 | X-H torsion
[ 3767 3762 3761 3758 ] final  -46.32 input  -89.99 | X-H torsion
[ 2472 2467 2466 2463 ] final -154.89 input  -89.97 | X-H torsion

> <Gold.Protein.ActiveResidues>
 VAL82   VAL86   LEU89   PHE106  VAL107  ASP110  VAL111  MET112  CYS114  THR115 
 CYS181  SER182  ILE183  PHE188  VAL189  ILE190  SER192  SER193  SER196  TRP342 
 PHE345  PHE346  HIS349  VAL350  TYR365  THR369  GLY372  TYR373 

> <Gold.Protein.RotatedAtoms>
    3.3595   -9.3119    3.8113 H   0  0  0  0  0  0  0  0  0  0  0  0  # atno 1303 bound_to 1298
    2.1614   -8.4334    7.8665 H   0  0  0  0  0  0  0  0  0  0  0  0  # atno 2461 bound_to 2456
   -5.0490   -5.4533    9.2933 H   0  0  0  0  0  0  0  0  0  0  0  0  # atno 2472 bound_to 2467
    2.1239   -8.5777    6.0814 H   0  0  0  0  0  0  0  0  0  0  0  0  # atno 2515 bound_to 2510
   -2.4751  -17.9930   14.1409 H   0  0  0  0  0  0  0  0  0  0  0  0  # atno 3721 bound_to 3712
   -5.5063  -22.1786   10.6238 H   0  0  0  0  0  0  0  0  0  0  0  0  # atno 3767 bound_to 3762
    1.5627  -19.9875    9.2193 H   0  0  0  0  0  0  0  0  0  0  0  0  # atno 3841 bound_to 3832
    4.6887   -8.6286    4.4692 LP  0  0  0  0  0  0  0  0  0  0  0  0  # atno 4297 bound_to 1298
    4.3142  -10.1808    4.8113 LP  0  0  0  0  0  0  0  0  0  0  0  0  # atno 4298 bound_to 1298
    0.7770   -8.1118    7.0619 LP  0  0  0  0  0  0  0  0  0  0  0  0  # atno 4299 bound_to 2456
    0.7997   -9.2630    8.2198 LP  0  0  0  0  0  0  0  0  0  0  0  0  # atno 4300 bound_to 2456
    2.3611   -7.4384    4.9362 LP  0  0  0  0  0  0  0  0  0  0  0  0  # atno 4301 bound_to 2510
    2.8119   -8.9830    4.6573 LP  0  0  0  0  0  0  0  0  0  0  0  0  # atno 4302 bound_to 2510
   -3.3986  -16.7445   14.5488 LP  0  0  0  0  0  0  0  0  0  0  0  0  # atno 4306 bound_to 3712
   -3.2715  -17.2086   12.9883 LP  0  0  0  0  0  0  0  0  0  0  0  0  # atno 4307 bound_to 3712
    2.7575  -19.9652    8.1478 LP  0  0  0  0  0  0  0  0  0  0  0  0  # atno 4314 bound_to 3832
    2.6667  -21.1516    9.2662 LP  0  0  0  0  0  0  0  0  0  0  0  0  # atno 4315 bound_to 3832
   -4.2346  -22.3692   11.6304 LP  0  0  0  0  0  0  0  0  0  0  0  0  # atno 4318 bound_to 3762
   -4.3868  -23.3272   10.3168 LP  0  0  0  0  0  0  0  0  0  0  0  0  # atno 4319 bound_to 3762
   -5.0333   -4.8975    7.7579 LP  0  0  0  0  0  0  0  0  0  0  0  0  # atno 4320 bound_to 2467
   -3.6346   -5.0428    8.5881 LP  0  0  0  0  0  0  0  0  0  0  0  0  # atno 4321 bound_to 2467

> <Gold.Score>
     Score     S(PLP)   S(hbond)     S(cho)   S(metal)  DE(clash)   DE(tors)     intcor
     38.43     -38.40       0.06       0.00       0.00       0.00       0.07       0.00

> <Gold.PLP.Fitness>
38.4345

> <Gold.PLP.PLP>
-38.3980

> <Gold.PLP.part.hbond>
-1.0000

> <Gold.PLP.part.metal>
0.0000

> <Gold.PLP.part.buried>
-2.1064

> <Gold.PLP.part.nonpolar>
-35.9386

> <Gold.PLP.part.repulsive>
0.0723

> <Gold.PLP.ligand.clash>
0.0000

> <Gold.PLP.ligand.torsion>
0.0684

> <Gold.PLP.Chemscore.Hbond>
0.0577

> <Gold.PLP.Chemscore.CHOScore>
0.0000

> <Gold.PLP.Chemscore.Metal>
0.0000

> <Gold.Chemscore.Hbonds>
donor molecule, donor type, donor heavy atom, donor atom, acceptor molecule, acceptor atom, score
      L1  H    11    27       P1  2456  0.06

> <Gold.PLP.Chemscore.Internal.Correction>
0.0002

