#       Name:                EN300-251348_i003
#       Creating user name   fsindt
#       Creation time:       Mon Feb 27 22:45:21 2023


#       File generated by GOLD software.
#

@<TRIPOS>MOLECULE
EN300-251348_i003|amine_3|mol2|1113|dock5
    28    29     1
SMALL
USER_CHARGES


@<TRIPOS>ATOM
      1 C1           1.4795 -21.9572  13.8195 C.3            1 <1>                0.0000
      2 O2           1.1282 -20.5971  13.4519 O.3            1 <1>                0.0000
      3 C3           0.7842 -19.7661  14.4483 C.2            1 <1>                0.0000
      4 O4           0.8128 -20.1511  15.5932 O.2            1 <1>                0.0000
      5 C5           0.3624 -18.3528  14.1389 C.3            1 <1>                0.0000
      6 C6           1.2657 -17.3717  14.8929 C.3            1 <1>                0.0000
      7 C7           2.0051 -16.5001  13.8722 C.3            1 <1>                0.0000
      8 C8           0.9806 -15.6906  13.0700 C.3            1 <1>                0.0000
      9 C9           0.0660 -16.6628  12.3188 C.3            1 <1>                0.0000
     10 C10          0.4923 -18.0973  12.6359 C.3            1 <1>                0.0000
     11 N11          1.8788 -18.3116  12.2132 N.4            1 <1>                1.0000
     12 C12          2.7876 -17.4027  12.9165 C.3            1 <1>                0.0000
     13 H13          1.7362 -22.5211  12.9228 H              1 <1>                0.0000
     14 H14          2.3340 -21.9415  14.4960 H              1 <1>                0.0000
     15 H15          0.6318 -22.4299  14.3157 H              1 <1>                0.0000
     16 H16         -0.6727 -18.2056  14.4468 H              1 <1>                0.0000
     17 H17          0.6585 -16.7401  15.5413 H              1 <1>                0.0000
     18 H18          1.9883 -17.9263  15.4915 H              1 <1>                0.0000
     19 H19          2.6829 -15.8224  14.3912 H              1 <1>                0.0000
     20 H20          0.3857 -15.0792  13.7484 H              1 <1>                0.0000
     21 H21          1.4987 -15.0503  12.3561 H              1 <1>                0.0000
     22 H22         -0.9659 -16.5107  12.6353 H              1 <1>                0.0000
     23 H23          0.1491 -16.4865  11.2464 H              1 <1>                0.0000
     24 H24         -0.1508 -18.7920  12.0955 H              1 <1>                0.0000
     25 H25          3.3152 -16.7859  12.1890 H              1 <1>                0.0000
     26 H26          3.5129 -17.9858  13.4840 H              1 <1>                0.0000
     27 H27          2.1428 -19.2647  12.4133 H              1 <1>                0.0000
     28 H28          1.9513 -18.1499  11.2199 H              1 <1>                0.0000
@<TRIPOS>BOND
    1    1    2 1     
    2    1   13 1     
    3    1   14 1     
    4    1   15 1     
    5    2    3 1     
    6    3    4 2     
    7    3    5 1     
    8    5    6 1     
    9    5   10 1     
   10    5   16 1     
   11    6    7 1     
   12    6   17 1     
   13    6   18 1     
   14    7    8 1     
   15    7   12 1     
   16    7   19 1     
   17    8    9 1     
   18    8   20 1     
   19    8   21 1     
   20    9   10 1     
   21    9   22 1     
   22    9   23 1     
   23   10   11 1     
   24   10   24 1     
   25   11   12 1     
   26   11   27 1     
   27   11   28 1     
   28   12   25 1     
   29   12   26 1     
@<TRIPOS>SUBSTRUCTURE
      1 ****           1
@<TRIPOS>SET
DONOR_HYDROGENS      STATIC     ATOMS    <user>   **** ""
2 27 28
ATOM$RED        STATIC     ATOMS    COLORGROUP SYSTEM
2 27 28
@<TRIPOS>COMMENT
> <Gold.Version>
2022.2.0

> <Gold.Id.Protein>
3pbl|protein|mol2

> <Gold.Protein.RotatedTorsions>
[ 1303 1298 1297 1294 ] final  140.08 input  179.99 | X-H torsion
[ 2461 2456 2455 2452 ] final -110.85 input   30.03 | X-H torsion
[ 2515 2510 2509 2506 ] final  -68.20 input  -89.99 | X-H torsion
[ 3721 3712 3711 3710 ] final   49.60 input -179.91 | X-H torsion
[ 3841 3832 3831 3830 ] final  -64.67 input -179.91 | X-H torsion
[ 3767 3762 3761 3758 ] final  171.18 input  -89.99 | X-H torsion
[ 2472 2467 2466 2463 ] final   85.13 input  -89.97 | X-H torsion

> <Gold.Protein.ActiveResidues>
 VAL82   VAL86   LEU89   PHE106  VAL107  ASP110  VAL111  MET112  CYS114  THR115 
 CYS181  SER182  ILE183  PHE188  VAL189  ILE190  SER192  SER193  SER196  TRP342 
 PHE345  PHE346  HIS349  VAL350  TYR365  THR369  GLY372  TYR373 

> <Gold.Protein.RotatedAtoms>
    4.8725   -9.4703    4.9242 H   0  0  0  0  0  0  0  0  0  0  0  0  # atno 1303 bound_to 1298
    0.4849   -9.1065    7.9537 H   0  0  0  0  0  0  0  0  0  0  0  0  # atno 2461 bound_to 2456
   -5.0335   -4.8982    7.7578 H   0  0  0  0  0  0  0  0  0  0  0  0  # atno 2472 bound_to 2467
    2.8335   -8.6279    4.4249 H   0  0  0  0  0  0  0  0  0  0  0  0  # atno 2515 bound_to 2510
   -2.5420  -17.9729   13.5180 H   0  0  0  0  0  0  0  0  0  0  0  0  # atno 3721 bound_to 3712
   -4.0227  -22.6418   11.5034 H   0  0  0  0  0  0  0  0  0  0  0  0  # atno 3767 bound_to 3762
    1.6386  -19.7713    8.9787 H   0  0  0  0  0  0  0  0  0  0  0  0  # atno 3841 bound_to 3832
    3.5319  -10.0989    4.2359 LP  0  0  0  0  0  0  0  0  0  0  0  0  # atno 4297 bound_to 1298
    3.9574   -8.5521    3.9313 LP  0  0  0  0  0  0  0  0  0  0  0  0  # atno 4298 bound_to 1298
    2.0671   -8.7541    8.1539 LP  0  0  0  0  0  0  0  0  0  0  0  0  # atno 4299 bound_to 2456
    1.1855   -7.9477    7.0406 LP  0  0  0  0  0  0  0  0  0  0  0  0  # atno 4300 bound_to 2456
    2.2692   -8.9446    5.9239 LP  0  0  0  0  0  0  0  0  0  0  0  0  # atno 4301 bound_to 2510
    2.1938   -7.4265    5.3268 LP  0  0  0  0  0  0  0  0  0  0  0  0  # atno 4302 bound_to 2510
   -3.0704  -17.2689   14.8608 LP  0  0  0  0  0  0  0  0  0  0  0  0  # atno 4306 bound_to 3712
   -3.5225  -16.7074   13.3955 LP  0  0  0  0  0  0  0  0  0  0  0  0  # atno 4307 bound_to 3712
    2.9890  -20.2335    8.2446 LP  0  0  0  0  0  0  0  0  0  0  0  0  # atno 4314 bound_to 3832
    2.3475  -21.1330    9.4472 LP  0  0  0  0  0  0  0  0  0  0  0  0  # atno 4315 bound_to 3832
   -4.6922  -23.2318   10.1357 LP  0  0  0  0  0  0  0  0  0  0  0  0  # atno 4318 bound_to 3762
   -5.4122  -22.0014   10.9323 LP  0  0  0  0  0  0  0  0  0  0  0  0  # atno 4319 bound_to 3762
   -3.6346   -5.0426    8.5876 LP  0  0  0  0  0  0  0  0  0  0  0  0  # atno 4320 bound_to 2467
   -5.0489   -5.4526    9.2936 LP  0  0  0  0  0  0  0  0  0  0  0  0  # atno 4321 bound_to 2467

> <Gold.Score>
     Score     S(PLP)   S(hbond)     S(cho)   S(metal)  DE(clash)   DE(tors)     intcor
     35.56     -29.61       2.00       0.00       0.00       0.00       0.02       0.00

> <Gold.PLP.Fitness>
35.5613

> <Gold.PLP.PLP>
-29.6096

> <Gold.PLP.part.hbond>
-1.0000

> <Gold.PLP.part.metal>
0.0000

> <Gold.PLP.part.buried>
-3.7956

> <Gold.PLP.part.nonpolar>
-24.9681

> <Gold.PLP.part.repulsive>
0.0805

> <Gold.PLP.ligand.clash>
0.0000

> <Gold.PLP.ligand.torsion>
0.0244

> <Gold.PLP.Chemscore.Hbond>
2.0000

> <Gold.PLP.Chemscore.CHOScore>
0.0000

> <Gold.PLP.Chemscore.Metal>
0.0000

> <Gold.Chemscore.Hbonds>
donor molecule, donor type, donor heavy atom, donor atom, acceptor molecule, acceptor atom, score
      L1  H    11    28       P1  1227  2.00

> <Gold.PLP.Chemscore.Internal.Correction>
0.0004

