#       Name:                plp ligand
#       Creating user name   fsindt
#       Creation time:       Mon Feb 27 22:45:19 2023


#       File generated by GOLD software.
#

@<TRIPOS>MOLECULE
plp ligand
    28    29     1
SMALL
USER_CHARGES


@<TRIPOS>ATOM
      1 C1           4.0381   0.1890  -0.2047 NONPOLAR       1 <1>                0.0000
      2 O2           2.7625   0.7129   0.2500 ACCEPTOR       1 <1>                0.0000
      3 C3           1.7458  -0.1580   0.3473 NONPOLAR       1 <1>                0.0000
      4 O4           1.9160  -1.3197   0.0620 ACCEPTOR       1 <1>                0.0000
      5 C5           0.3920   0.3131   0.8124 NONPOLAR       1 <1>                0.0000
      6 C6          -0.1332   1.3879  -0.1446 NONPOLAR       1 <1>                0.0000
      7 C7          -1.4368   0.8889  -0.7769 NONPOLAR       1 <1>                0.0000
      8 C8          -2.4791   0.6771   0.3263 NONPOLAR       1 <1>                0.0000
      9 C9          -1.9596  -0.3901   1.2944 NONPOLAR       1 <1>                0.0000
     10 C10         -0.5838  -0.8654   0.8239 NONPOLAR       1 <1>                0.0000
     11 N11         -0.6862  -1.4392  -0.5204 DONOR          1 <1>                1.0000
     12 C12         -1.1744  -0.4446  -1.4791 NONPOLAR       1 <1>                0.0000
     13 H13          4.7709   0.9952  -0.2381                1 <1>                0.0000
     14 H14          4.3795  -0.5841   0.4837                1 <1>                0.0000
     15 H15          3.9214  -0.2374  -1.2010                1 <1>                0.0000
     16 H16          0.4757   0.7285   1.8166                1 <1>                0.0000
     17 H17         -0.3236   2.3079   0.4080                1 <1>                0.0000
     18 H18          0.6041   1.5738  -0.9255                1 <1>                0.0000
     19 H19         -1.8035   1.6259  -1.4914                1 <1>                0.0000
     20 H20         -2.6378   1.6120   0.8637                1 <1>                0.0000
     21 H21         -3.4175   0.3433  -0.1165                1 <1>                0.0000
     22 H22         -1.8760   0.0349   2.2947                1 <1>                0.0000
     23 H23         -2.6501  -1.2333   1.3121                1 <1>                0.0000
     24 H24         -0.2150  -1.6319   1.5056                1 <1>                0.0000
     25 H25         -2.0997  -0.8026  -1.9304                1 <1>                0.0000
     26 H26         -0.4280  -0.3000  -2.2602                1 <1>                0.0000
     27 H27          0.2237  -1.7628  -0.8129                1 <1>                0.0000
     28 H28         -1.3241  -2.2207  -0.4996                1 <1>                0.0000
@<TRIPOS>BOND
    1    1    2 1     
    2    1   13 1     
    3    1   14 1     
    4    1   15 1     
    5    2    3 1     
    6    3    4 2     
    7    3    5 1     
    8    5    6 1     
    9    5   10 1     
   10    5   16 1     
   11    6    7 1     
   12    6   17 1     
   13    6   18 1     
   14    7    8 1     
   15    7   12 1     
   16    7   19 1     
   17    8    9 1     
   18    8   20 1     
   19    8   21 1     
   20    9   10 1     
   21    9   22 1     
   22    9   23 1     
   23   10   11 1     
   24   10   24 1     
   25   11   12 1     
   26   11   27 1     
   27   11   28 1     
   28   12   25 1     
   29   12   26 1     
@<TRIPOS>SUBSTRUCTURE
      1 ****           1
@<TRIPOS>SET
DONOR_HYDROGENS      STATIC     ATOMS    <user>   **** ""
2 27 28
ATOM$RED        STATIC     ATOMS    COLORGROUP SYSTEM
2 27 28
