#       Name:                EN300-303374_i001
#       Creating user name   fsindt
#       Creation time:       Wed Mar  1 03:33:26 2023


#       File generated by GOLD software.
#

@<TRIPOS>MOLECULE
EN300-303374_i001|amine_1|mol2|7788|dock7
    16    16     1
SMALL
USER_CHARGES


@<TRIPOS>ATOM
      1 N1           1.8331 -15.3325   7.6311 N.pl3          1 <1>                0.0000
      2 C2           1.0995 -14.2252   8.0555 C.ar           1 <1>                0.0000
      3 C3           0.8217 -13.1949   7.1655 C.ar           1 <1>                0.0000
      4 C4           0.0971 -12.0987   7.5805 C.ar           1 <1>                0.0000
      5 C5          -0.3600 -12.0214   8.8987 C.ar           1 <1>                0.0000
      6 C6          -1.1135 -10.8830   9.3310 C.1            1 <1>                0.0000
      7 N7          -1.7112  -9.9799   9.6741 N.1            1 <1>                0.0000
      8 C8          -0.0806 -13.0581   9.7949 C.ar           1 <1>                0.0000
      9 C9           0.6406 -14.1564   9.3723 C.ar           1 <1>                0.0000
     10 O10          0.9136 -15.1665  10.2414 O.3            1 <1>                0.0000
     11 H11          1.1746 -13.2531   6.1465 H              1 <1>                0.0000
     12 H12         -0.1173 -11.2990   6.8870 H              1 <1>                0.0000
     13 H13         -0.4322 -13.0014  10.8146 H              1 <1>                0.0000
     14 H14          2.1488 -15.3831   6.7153 H              1 <1>                0.0000
     15 H15          2.0310 -16.0503   8.2528 H              1 <1>                0.0000
     16 H16          1.4073 -15.8997   9.8495 H              1 <1>                0.0000
@<TRIPOS>BOND
    1    1    2 1     
    2    1   14 1     
    3    1   15 1     
    4    2    3 ar    
    5    2    9 ar    
    6    3    4 ar    
    7    3   11 1     
    8    4    5 ar    
    9    4   12 1     
   10    5    6 1     
   11    5    8 ar    
   12    6    7 3     
   13    8    9 ar    
   14    8   13 1     
   15    9   10 1     
   16   10   16 1     
@<TRIPOS>SUBSTRUCTURE
      1 ****           1
@<TRIPOS>SET
DONOR_HYDROGENS      STATIC     ATOMS    <user>   **** ""
3 14 15 16
ATOM$RED        STATIC     ATOMS    COLORGROUP SYSTEM
3 14 15 16
@<TRIPOS>COMMENT
> <Gold.Version>
2022.2.0

> <Gold.Id.Protein>
3pbl|protein|mol2

> <Gold.Protein.RotatedTorsions>
[ 1303 1298 1297 1294 ] final  103.77 input  179.99 | X-H torsion
[ 2461 2456 2455 2452 ] final -150.05 input   30.03 | X-H torsion
[ 2515 2510 2509 2506 ] final -115.30 input  -89.99 | X-H torsion
[ 3721 3712 3711 3710 ] final   73.13 input -179.91 | X-H torsion
[ 3841 3832 3831 3830 ] final  156.87 input -179.91 | X-H torsion
[ 3767 3762 3761 3758 ] final   19.59 input  -89.99 | X-H torsion
[ 2472 2467 2466 2463 ] final -147.91 input  -89.97 | X-H torsion

> <Gold.Protein.ActiveResidues>
 VAL82   VAL86   LEU89   PHE106  VAL107  ASP110  VAL111  MET112  CYS114  THR115 
 CYS181  SER182  ILE183  PHE188  VAL189  ILE190  SER192  SER193  SER196  TRP342 
 PHE345  PHE346  HIS349  VAL350  TYR365  THR369  GLY372  TYR373 

> <Gold.Protein.RotatedAtoms>
    4.5811   -9.9803    4.9195 H   0  0  0  0  0  0  0  0  0  0  0  0  # atno 1303 bound_to 1298
    0.9779   -9.2875    8.3066 H   0  0  0  0  0  0  0  0  0  0  0  0  # atno 2461 bound_to 2456
   -4.9474   -5.4611    9.3459 H   0  0  0  0  0  0  0  0  0  0  0  0  # atno 2472 bound_to 2467
    2.7373   -9.1755    4.9328 H   0  0  0  0  0  0  0  0  0  0  0  0  # atno 2515 bound_to 2510
   -2.6679  -17.7965   13.2390 H   0  0  0  0  0  0  0  0  0  0  0  0  # atno 3721 bound_to 3712
   -5.1145  -22.9477   10.0692 H   0  0  0  0  0  0  0  0  0  0  0  0  # atno 3767 bound_to 3762
    3.1032  -20.3242    8.5669 H   0  0  0  0  0  0  0  0  0  0  0  0  # atno 3841 bound_to 3832
    3.3333   -9.6441    3.9213 LP  0  0  0  0  0  0  0  0  0  0  0  0  # atno 4297 bound_to 1298
    4.4477   -8.4967    4.2505 LP  0  0  0  0  0  0  0  0  0  0  0  0  # atno 4298 bound_to 1298
    2.1378   -8.2972    7.7222 LP  0  0  0  0  0  0  0  0  0  0  0  0  # atno 4299 bound_to 2456
    0.6219   -8.2237    7.1195 LP  0  0  0  0  0  0  0  0  0  0  0  0  # atno 4300 bound_to 2456
    2.0507   -8.2412    6.0824 LP  0  0  0  0  0  0  0  0  0  0  0  0  # atno 4301 bound_to 2510
    2.5085   -7.5820    4.6602 LP  0  0  0  0  0  0  0  0  0  0  0  0  # atno 4302 bound_to 2510
   -2.8802  -17.6073   14.8192 LP  0  0  0  0  0  0  0  0  0  0  0  0  # atno 4306 bound_to 3712
   -3.5674  -16.5725   13.7592 LP  0  0  0  0  0  0  0  0  0  0  0  0  # atno 4307 bound_to 3712
    2.0255  -21.0114    9.5377 LP  0  0  0  0  0  0  0  0  0  0  0  0  # atno 4314 bound_to 3832
    1.6191  -19.7163    8.6299 LP  0  0  0  0  0  0  0  0  0  0  0  0  # atno 4315 bound_to 3832
   -5.1058  -21.9156   11.3347 LP  0  0  0  0  0  0  0  0  0  0  0  0  # atno 4318 bound_to 3762
   -3.9072  -23.0119   11.1669 LP  0  0  0  0  0  0  0  0  0  0  0  0  # atno 4319 bound_to 3762
   -5.1291   -4.9280    7.8133 LP  0  0  0  0  0  0  0  0  0  0  0  0  # atno 4320 bound_to 2467
   -3.6404   -5.0045    8.4801 LP  0  0  0  0  0  0  0  0  0  0  0  0  # atno 4321 bound_to 2467

> <Gold.Score>
     Score     S(PLP)   S(hbond)     S(cho)   S(metal)  DE(clash)   DE(tors)     intcor
     34.59     -29.38       1.73       0.00       0.00       0.00       0.00       0.00

> <Gold.PLP.Fitness>
34.5857

> <Gold.PLP.PLP>
-29.3818

> <Gold.PLP.part.hbond>
-3.0000

> <Gold.PLP.part.metal>
0.0000

> <Gold.PLP.part.buried>
-3.9311

> <Gold.PLP.part.nonpolar>
-23.1782

> <Gold.PLP.part.repulsive>
0.1369

> <Gold.PLP.ligand.clash>
0.0000

> <Gold.PLP.ligand.torsion>
0.0000

> <Gold.PLP.Chemscore.Hbond>
1.7347

> <Gold.PLP.Chemscore.CHOScore>
0.0000

> <Gold.PLP.Chemscore.Metal>
0.0000

> <Gold.Chemscore.Hbonds>
donor molecule, donor type, donor heavy atom, donor atom, acceptor molecule, acceptor atom, score
      L1  H     1    14       P1  1223  0.10
      L1  H     1    15       P1  1227  0.69
      L1  H    10    16       P1  1227  0.94

> <Gold.PLP.Chemscore.Internal.Correction>
0.0000

