#       Name:                EN300-303374_i001
#       Creating user name   fsindt
#       Creation time:       Wed Mar  1 03:33:25 2023


#       File generated by GOLD software.
#

@<TRIPOS>MOLECULE
EN300-303374_i001|amine_1|mol2|7788|dock3
    16    16     1
SMALL
USER_CHARGES


@<TRIPOS>ATOM
      1 N1          -0.0470 -14.7801  10.4647 N.pl3          1 <1>                0.0000
      2 C2           0.3764 -14.0537   9.3523 C.ar           1 <1>                0.0000
      3 C3           0.5071 -12.6727   9.4347 C.ar           1 <1>                0.0000
      4 C4           0.9253 -11.9507   8.3380 C.ar           1 <1>                0.0000
      5 C5           1.2189 -12.6069   7.1398 C.ar           1 <1>                0.0000
      6 C6           1.6540 -11.8578   5.9996 C.1            1 <1>                0.0000
      7 N7           1.9993 -11.2636   5.0950 N.1            1 <1>                0.0000
      8 C8           1.0875 -13.9969   7.0563 C.ar           1 <1>                0.0000
      9 C9           0.6738 -14.7156   8.1596 C.ar           1 <1>                0.0000
     10 O10          0.5455 -16.0675   8.0818 O.3            1 <1>                0.0000
     11 H11          0.2802 -12.1641  10.3600 H              1 <1>                0.0000
     12 H12          1.0258 -10.8774   8.4043 H              1 <1>                0.0000
     13 H13          1.3133 -14.5072   6.1316 H              1 <1>                0.0000
     14 H14         -0.2500 -14.3215  11.2950 H              1 <1>                0.0000
     15 H15         -0.1425 -15.7437  10.4069 H              1 <1>                0.0000
     16 H16          1.1240 -16.5528   8.6857 H              1 <1>                0.0000
@<TRIPOS>BOND
    1    1    2 1     
    2    1   14 1     
    3    1   15 1     
    4    2    3 ar    
    5    2    9 ar    
    6    3    4 ar    
    7    3   11 1     
    8    4    5 ar    
    9    4   12 1     
   10    5    6 1     
   11    5    8 ar    
   12    6    7 3     
   13    8    9 ar    
   14    8   13 1     
   15    9   10 1     
   16   10   16 1     
@<TRIPOS>SUBSTRUCTURE
      1 ****           1
@<TRIPOS>SET
DONOR_HYDROGENS      STATIC     ATOMS    <user>   **** ""
3 14 15 16
ATOM$RED        STATIC     ATOMS    COLORGROUP SYSTEM
3 14 15 16
@<TRIPOS>COMMENT
> <Gold.Version>
2022.2.0

> <Gold.Id.Protein>
3pbl|protein|mol2

> <Gold.Protein.RotatedTorsions>
[ 1303 1298 1297 1294 ] final   27.74 input  179.99 | X-H torsion
[ 2461 2456 2455 2452 ] final  173.29 input   30.03 | X-H torsion
[ 2515 2510 2509 2506 ] final -140.85 input  -89.99 | X-H torsion
[ 3721 3712 3711 3710 ] final  109.52 input -179.91 | X-H torsion
[ 3841 3832 3831 3830 ] final  126.41 input -179.91 | X-H torsion
[ 3767 3762 3761 3758 ] final  174.71 input  -89.99 | X-H torsion
[ 2472 2467 2466 2463 ] final  174.97 input  -89.97 | X-H torsion

> <Gold.Protein.ActiveResidues>
 VAL82   VAL86   LEU89   PHE106  VAL107  ASP110  VAL111  MET112  CYS114  THR115 
 CYS181  SER182  ILE183  PHE188  VAL189  ILE190  SER192  SER193  SER196  TRP342 
 PHE345  PHE346  HIS349  VAL350  TYR365  THR369  GLY372  TYR373 

> <Gold.Protein.RotatedAtoms>
    3.6074  -10.1628    4.3138 H   0  0  0  0  0  0  0  0  0  0  0  0  # atno 1303 bound_to 1298
    1.5537   -9.1773    8.3976 H   0  0  0  0  0  0  0  0  0  0  0  0  # atno 2461 bound_to 2456
   -5.3901   -5.3677    8.9515 H   0  0  0  0  0  0  0  0  0  0  0  0  # atno 2472 bound_to 2467
    2.5935   -9.2572    5.3154 H   0  0  0  0  0  0  0  0  0  0  0  0  # atno 2515 bound_to 2510
   -2.9303  -17.3706   13.0333 H   0  0  0  0  0  0  0  0  0  0  0  0  # atno 3721 bound_to 3712
   -4.0496  -22.5980   11.5305 H   0  0  0  0  0  0  0  0  0  0  0  0  # atno 3767 bound_to 3762
    3.1081  -20.6645    8.8685 H   0  0  0  0  0  0  0  0  0  0  0  0  # atno 3841 bound_to 3832
    3.8559   -8.6077    3.8823 LP  0  0  0  0  0  0  0  0  0  0  0  0  # atno 4297 bound_to 1298
    4.8990   -9.3506    4.8955 LP  0  0  0  0  0  0  0  0  0  0  0  0  # atno 4298 bound_to 1298
    1.8386   -7.9910    7.3118 LP  0  0  0  0  0  0  0  0  0  0  0  0  # atno 4299 bound_to 2456
    0.3455   -8.6400    7.4390 LP  0  0  0  0  0  0  0  0  0  0  0  0  # atno 4300 bound_to 2456
    2.0311   -7.8533    5.9307 LP  0  0  0  0  0  0  0  0  0  0  0  0  # atno 4301 bound_to 2510
    2.6720   -7.8882    4.4291 LP  0  0  0  0  0  0  0  0  0  0  0  0  # atno 4302 bound_to 2510
   -2.6635  -18.0400   14.4680 LP  0  0  0  0  0  0  0  0  0  0  0  0  # atno 4306 bound_to 3712
   -3.4812  -16.6316   14.3479 LP  0  0  0  0  0  0  0  0  0  0  0  0  # atno 4307 bound_to 3712
    1.6332  -20.6988    9.5008 LP  0  0  0  0  0  0  0  0  0  0  0  0  # atno 4314 bound_to 3832
    2.0057  -19.6358    8.3184 LP  0  0  0  0  0  0  0  0  0  0  0  0  # atno 4315 bound_to 3832
   -4.6429  -23.2534   10.1574 LP  0  0  0  0  0  0  0  0  0  0  0  0  # atno 4318 bound_to 3762
   -5.4346  -22.0236   10.8835 LP  0  0  0  0  0  0  0  0  0  0  0  0  # atno 4319 bound_to 3762
   -4.5609   -4.8102    7.6600 LP  0  0  0  0  0  0  0  0  0  0  0  0  # atno 4320 bound_to 2467
   -3.7661   -5.2157    9.0277 LP  0  0  0  0  0  0  0  0  0  0  0  0  # atno 4321 bound_to 2467

> <Gold.Score>
     Score     S(PLP)   S(hbond)     S(cho)   S(metal)  DE(clash)   DE(tors)     intcor
     39.94     -32.04       2.63       0.00       0.00       0.00       0.00       0.00

> <Gold.PLP.Fitness>
39.9426

> <Gold.PLP.PLP>
-32.0394

> <Gold.PLP.part.hbond>
-3.3005

> <Gold.PLP.part.metal>
0.0000

> <Gold.PLP.part.buried>
-1.4731

> <Gold.PLP.part.nonpolar>
-28.0130

> <Gold.PLP.part.repulsive>
0.1387

> <Gold.PLP.ligand.clash>
0.0000

> <Gold.PLP.ligand.torsion>
0.0000

> <Gold.PLP.Chemscore.Hbond>
2.6344

> <Gold.PLP.Chemscore.CHOScore>
0.0000

> <Gold.PLP.Chemscore.Metal>
0.0000

> <Gold.Chemscore.Hbonds>
donor molecule, donor type, donor heavy atom, donor atom, acceptor molecule, acceptor atom, score
      L1  H    10    16       P1  1227  1.00
      P1  H  1298  1303       L1     7  1.00
      P1  H  2510  2515       L1     7  0.63

> <Gold.PLP.Chemscore.Internal.Correction>
0.0000

