#       Name:                EN300-303374_i001
#       Creating user name   fsindt
#       Creation time:       Wed Mar  1 03:33:29 2023


#       File generated by GOLD software.
#

@<TRIPOS>MOLECULE
EN300-303374_i001|amine_1|mol2|7788|dock16
    16    16     1
SMALL
USER_CHARGES


@<TRIPOS>ATOM
      1 N1           2.2251 -19.0629  12.0671 N.pl3          1 <1>                0.0000
      2 C2           1.2874 -20.0947  12.0494 C.ar           1 <1>                0.0000
      3 C3           1.3916 -21.1422  12.9566 C.ar           1 <1>                0.0000
      4 C4           0.4671 -22.1639  12.9428 C.ar           1 <1>                0.0000
      5 C5          -0.5779 -22.1484  12.0154 C.ar           1 <1>                0.0000
      6 C6          -1.5396 -23.2094  12.0004 C.1            1 <1>                0.0000
      7 N7          -2.3025 -24.0510  11.9885 N.1            1 <1>                0.0000
      8 C8          -0.6833 -21.0944  11.1021 C.ar           1 <1>                0.0000
      9 C9           0.2421 -20.0707  11.1242 C.ar           1 <1>                0.0000
     10 O10          0.1421 -19.0440  10.2376 O.3            1 <1>                0.0000
     11 H11          2.1990 -21.1557  13.6737 H              1 <1>                0.0000
     12 H12          0.5505 -22.9771  13.6486 H              1 <1>                0.0000
     13 H13         -1.4897 -21.0794  10.3837 H              1 <1>                0.0000
     14 H14          2.9494 -19.0767  12.7122 H              1 <1>                0.0000
     15 H15          2.1555 -18.3335  11.4315 H              1 <1>                0.0000
     16 H16          0.9927 -18.6653   9.9769 H              1 <1>                0.0000
@<TRIPOS>BOND
    1    1    2 1     
    2    1   14 1     
    3    1   15 1     
    4    2    3 ar    
    5    2    9 ar    
    6    3    4 ar    
    7    3   11 1     
    8    4    5 ar    
    9    4   12 1     
   10    5    6 1     
   11    5    8 ar    
   12    6    7 3     
   13    8    9 ar    
   14    8   13 1     
   15    9   10 1     
   16   10   16 1     
@<TRIPOS>SUBSTRUCTURE
      1 ****           1
@<TRIPOS>SET
DONOR_HYDROGENS      STATIC     ATOMS    <user>   **** ""
3 14 15 16
ATOM$RED        STATIC     ATOMS    COLORGROUP SYSTEM
3 14 15 16
@<TRIPOS>COMMENT
> <Gold.Version>
2022.2.0

> <Gold.Id.Protein>
3pbl|protein|mol2

> <Gold.Protein.RotatedTorsions>
[ 1303 1298 1297 1294 ] final  -17.69 input  179.99 | X-H torsion
[ 2461 2456 2455 2452 ] final  -88.22 input   30.03 | X-H torsion
[ 2515 2510 2509 2506 ] final  -72.90 input  -89.99 | X-H torsion
[ 3721 3712 3711 3710 ] final  107.66 input -179.91 | X-H torsion
[ 3841 3832 3831 3830 ] final  -85.80 input -179.91 | X-H torsion
[ 3767 3762 3761 3758 ] final  134.77 input  -89.99 | X-H torsion
[ 2472 2467 2466 2463 ] final -104.66 input  -89.97 | X-H torsion

> <Gold.Protein.ActiveResidues>
 VAL82   VAL86   LEU89   PHE106  VAL107  ASP110  VAL111  MET112  CYS114  THR115 
 CYS181  SER182  ILE183  PHE188  VAL189  ILE190  SER192  SER193  SER196  TRP342 
 PHE345  PHE346  HIS349  VAL350  TYR365  THR369  GLY372  TYR373 

> <Gold.Protein.RotatedAtoms>
    3.3315   -9.6219    3.9121 H   0  0  0  0  0  0  0  0  0  0  0  0  # atno 1303 bound_to 1298
    0.3476   -8.8885    7.6880 H   0  0  0  0  0  0  0  0  0  0  0  0  # atno 2461 bound_to 2456
   -4.2565   -5.4019    9.3925 H   0  0  0  0  0  0  0  0  0  0  0  0  # atno 2472 bound_to 2467
    2.8357   -8.6987    4.4559 H   0  0  0  0  0  0  0  0  0  0  0  0  # atno 2515 bound_to 2510
   -2.9161  -17.3948   13.0358 H   0  0  0  0  0  0  0  0  0  0  0  0  # atno 3721 bound_to 3712
   -3.9099  -23.0602   11.1041 H   0  0  0  0  0  0  0  0  0  0  0  0  # atno 3767 bound_to 3762
    1.8088  -19.6329    8.7494 H   0  0  0  0  0  0  0  0  0  0  0  0  # atno 3841 bound_to 3832
    4.4661   -8.5020    4.2654 LP  0  0  0  0  0  0  0  0  0  0  0  0  # atno 4297 bound_to 1298
    4.5649   -9.9973    4.9142 LP  0  0  0  0  0  0  0  0  0  0  0  0  # atno 4298 bound_to 1298
    1.8483   -8.9998    8.3230 LP  0  0  0  0  0  0  0  0  0  0  0  0  # atno 4299 bound_to 2456
    1.5416   -7.9199    7.1371 LP  0  0  0  0  0  0  0  0  0  0  0  0  # atno 4300 bound_to 2456
    2.2395   -8.8856    5.9643 LP  0  0  0  0  0  0  0  0  0  0  0  0  # atno 4301 bound_to 2510
    2.2213   -7.4146    5.2555 LP  0  0  0  0  0  0  0  0  0  0  0  0  # atno 4302 bound_to 2510
   -2.6711  -18.0229   14.4929 LP  0  0  0  0  0  0  0  0  0  0  0  0  # atno 4306 bound_to 3712
   -3.4899  -16.6207   14.3201 LP  0  0  0  0  0  0  0  0  0  0  0  0  # atno 4307 bound_to 3712
    3.1101  -20.5127    8.4197 LP  0  0  0  0  0  0  0  0  0  0  0  0  # atno 4314 bound_to 3832
    2.0298  -21.0137    9.5371 LP  0  0  0  0  0  0  0  0  0  0  0  0  # atno 4315 bound_to 3832
   -5.1715  -22.8938   10.0807 LP  0  0  0  0  0  0  0  0  0  0  0  0  # atno 4318 bound_to 3762
   -5.0456  -21.9212   11.3864 LP  0  0  0  0  0  0  0  0  0  0  0  0  # atno 4319 bound_to 3762
   -5.4949   -5.1635    8.3552 LP  0  0  0  0  0  0  0  0  0  0  0  0  # atno 4320 bound_to 2467
   -3.9654   -4.8282    7.8916 LP  0  0  0  0  0  0  0  0  0  0  0  0  # atno 4321 bound_to 2467

> <Gold.Score>
     Score     S(PLP)   S(hbond)     S(cho)   S(metal)  DE(clash)   DE(tors)     intcor
     33.86     -24.98       2.96       0.00       0.00       0.00       0.00       0.00

> <Gold.PLP.Fitness>
33.8597

> <Gold.PLP.PLP>
-24.9797

> <Gold.PLP.part.hbond>
-4.9247

> <Gold.PLP.part.metal>
0.0000

> <Gold.PLP.part.buried>
-2.3393

> <Gold.PLP.part.nonpolar>
-18.2807

> <Gold.PLP.part.repulsive>
0.1070

> <Gold.PLP.ligand.clash>
0.0000

> <Gold.PLP.ligand.torsion>
0.0000

> <Gold.PLP.Chemscore.Hbond>
2.9600

> <Gold.PLP.Chemscore.CHOScore>
0.0000

> <Gold.PLP.Chemscore.Metal>
0.0000

> <Gold.Chemscore.Hbonds>
donor molecule, donor type, donor heavy atom, donor atom, acceptor molecule, acceptor atom, score
      L1  H     1    15       P1  1227  0.96
      L1  H    10    16       P1  1227  1.00
      P1  H  3762  3767       L1     7  1.00

> <Gold.PLP.Chemscore.Internal.Correction>
0.0000

