#       Name:                EN300-303374_i001
#       Creating user name   fsindt
#       Creation time:       Wed Mar  1 03:33:25 2023


#       File generated by GOLD software.
#

@<TRIPOS>MOLECULE
EN300-303374_i001|amine_1|mol2|7788|dock2
    16    16     1
SMALL
USER_CHARGES


@<TRIPOS>ATOM
      1 N1           1.5981 -15.3040   7.8586 N.pl3          1 <1>                0.0000
      2 C2           0.9115 -14.3156   8.5630 C.ar           1 <1>                0.0000
      3 C3           0.6256 -13.1006   7.9522 C.ar           1 <1>                0.0000
      4 C4          -0.0528 -12.1211   8.6444 C.ar           1 <1>                0.0000
      5 C5          -0.4547 -12.3482   9.9633 C.ar           1 <1>                0.0000
      6 C6          -1.1601 -11.3312  10.6835 C.1            1 <1>                0.0000
      7 N7          -1.7198 -10.5246  11.2549 N.1            1 <1>                0.0000
      8 C8          -0.1671 -13.5709  10.5785 C.ar           1 <1>                0.0000
      9 C9           0.5075 -14.5507   9.8785 C.ar           1 <1>                0.0000
     10 O10          0.7883 -15.7410  10.4738 O.3            1 <1>                0.0000
     11 H11          0.9359 -12.9236   6.9330 H              1 <1>                0.0000
     12 H12         -0.2735 -11.1775   8.1677 H              1 <1>                0.0000
     13 H13         -0.4760 -13.7497  11.5979 H              1 <1>                0.0000
     14 H14          1.8757 -15.1431   6.9432 H              1 <1>                0.0000
     15 H15          1.8018 -16.1508   8.2854 H              1 <1>                0.0000
     16 H16          1.5679 -16.1861  10.1148 H              1 <1>                0.0000
@<TRIPOS>BOND
    1    1    2 1     
    2    1   14 1     
    3    1   15 1     
    4    2    3 ar    
    5    2    9 ar    
    6    3    4 ar    
    7    3   11 1     
    8    4    5 ar    
    9    4   12 1     
   10    5    6 1     
   11    5    8 ar    
   12    6    7 3     
   13    8    9 ar    
   14    8   13 1     
   15    9   10 1     
   16   10   16 1     
@<TRIPOS>SUBSTRUCTURE
      1 ****           1
@<TRIPOS>SET
DONOR_HYDROGENS      STATIC     ATOMS    <user>   **** ""
3 14 15 16
ATOM$RED        STATIC     ATOMS    COLORGROUP SYSTEM
3 14 15 16
@<TRIPOS>COMMENT
> <Gold.Version>
2022.2.0

> <Gold.Id.Protein>
3pbl|protein|mol2

> <Gold.Protein.RotatedTorsions>
[ 1303 1298 1297 1294 ] final   73.92 input  179.99 | X-H torsion
[ 2461 2456 2455 2452 ] final   33.72 input   30.03 | X-H torsion
[ 2515 2510 2509 2506 ] final  -82.02 input  -89.99 | X-H torsion
[ 3721 3712 3711 3710 ] final   89.81 input -179.91 | X-H torsion
[ 3841 3832 3831 3830 ] final   37.97 input -179.91 | X-H torsion
[ 3767 3762 3761 3758 ] final  127.74 input  -89.99 | X-H torsion
[ 2472 2467 2466 2463 ] final  -65.45 input  -89.97 | X-H torsion

> <Gold.Protein.ActiveResidues>
 VAL82   VAL86   LEU89   PHE106  VAL107  ASP110  VAL111  MET112  CYS114  THR115 
 CYS181  SER182  ILE183  PHE188  VAL189  ILE190  SER192  SER193  SER196  TRP342 
 PHE345  PHE346  HIS349  VAL350  TYR365  THR369  GLY372  TYR373 

> <Gold.Protein.RotatedAtoms>
    4.1998  -10.2295    4.7513 H   0  0  0  0  0  0  0  0  0  0  0  0  # atno 1303 bound_to 1298
    1.5709   -7.9222    7.1497 H   0  0  0  0  0  0  0  0  0  0  0  0  # atno 2461 bound_to 2456
   -3.7694   -5.2187    9.0328 H   0  0  0  0  0  0  0  0  0  0  0  0  # atno 2472 bound_to 2467
    2.8323   -8.8286    4.5304 H   0  0  0  0  0  0  0  0  0  0  0  0  # atno 2515 bound_to 2510
   -2.7825  -17.6174   13.1052 H   0  0  0  0  0  0  0  0  0  0  0  0  # atno 3721 bound_to 3712
   -3.9248  -23.1256   11.0100 H   0  0  0  0  0  0  0  0  0  0  0  0  # atno 3767 bound_to 3762
    2.1706  -20.8425    9.6083 H   0  0  0  0  0  0  0  0  0  0  0  0  # atno 3841 bound_to 3832
    3.3994   -9.1818    3.7879 LP  0  0  0  0  0  0  0  0  0  0  0  0  # atno 4297 bound_to 1298
    4.7630   -8.7098    4.5523 LP  0  0  0  0  0  0  0  0  0  0  0  0  # atno 4298 bound_to 1298
    0.3424   -8.8672    7.6648 LP  0  0  0  0  0  0  0  0  0  0  0  0  # atno 4299 bound_to 2456
    1.8246   -9.0185    8.3334 LP  0  0  0  0  0  0  0  0  0  0  0  0  # atno 4300 bound_to 2456
    2.1857   -8.7612    6.0281 LP  0  0  0  0  0  0  0  0  0  0  0  0  # atno 4301 bound_to 2510
    2.2785   -7.4091    5.1171 LP  0  0  0  0  0  0  0  0  0  0  0  0  # atno 4302 bound_to 2510
   -2.7645  -17.8282   14.6968 LP  0  0  0  0  0  0  0  0  0  0  0  0  # atno 4306 bound_to 3712
   -3.5508  -16.5586   14.0361 LP  0  0  0  0  0  0  0  0  0  0  0  0  # atno 4307 bound_to 3712
    1.6385  -19.7055    8.6082 LP  0  0  0  0  0  0  0  0  0  0  0  0  # atno 4314 bound_to 3832
    3.0834  -20.4235    8.3564 LP  0  0  0  0  0  0  0  0  0  0  0  0  # atno 4315 bound_to 3832
   -5.2482  -22.8113   10.1064 LP  0  0  0  0  0  0  0  0  0  0  0  0  # atno 4318 bound_to 3762
   -4.9540  -21.9383   11.4547 LP  0  0  0  0  0  0  0  0  0  0  0  0  # atno 4319 bound_to 3762
   -5.3934   -5.3653    8.9461 LP  0  0  0  0  0  0  0  0  0  0  0  0  # atno 4320 bound_to 2467
   -4.5539   -4.8096    7.6604 LP  0  0  0  0  0  0  0  0  0  0  0  0  # atno 4321 bound_to 2467

> <Gold.Score>
     Score     S(PLP)   S(hbond)     S(cho)   S(metal)  DE(clash)   DE(tors)     intcor
     36.39     -30.54       1.95       0.00       0.00       0.00       0.00       0.00

> <Gold.PLP.Fitness>
36.3916

> <Gold.PLP.PLP>
-30.5416

> <Gold.PLP.part.hbond>
-2.6451

> <Gold.PLP.part.metal>
0.0000

> <Gold.PLP.part.buried>
-4.2227

> <Gold.PLP.part.nonpolar>
-24.5691

> <Gold.PLP.part.repulsive>
0.1051

> <Gold.PLP.ligand.clash>
0.0000

> <Gold.PLP.ligand.torsion>
0.0000

> <Gold.PLP.Chemscore.Hbond>
1.9500

> <Gold.PLP.Chemscore.CHOScore>
0.0000

> <Gold.PLP.Chemscore.Metal>
0.0000

> <Gold.Chemscore.Hbonds>
donor molecule, donor type, donor heavy atom, donor atom, acceptor molecule, acceptor atom, score
      L1  H     1    15       P1  1227  0.95
      L1  H    10    16       P1  1227  1.00

> <Gold.PLP.Chemscore.Internal.Correction>
0.0000

