#       Name:                EN300-303374_i001
#       Creating user name   fsindt
#       Creation time:       Wed Mar  1 03:33:29 2023


#       File generated by GOLD software.
#

@<TRIPOS>MOLECULE
EN300-303374_i001|amine_1|mol2|7788|dock15
    16    16     1
SMALL
USER_CHARGES


@<TRIPOS>ATOM
      1 N1          -0.0370 -15.6922  11.0179 N.pl3          1 <1>                0.0000
      2 C2           0.2453 -14.8858   9.9159 C.ar           1 <1>                0.0000
      3 C3           0.4536 -13.5228  10.0891 C.ar           1 <1>                0.0000
      4 C4           0.7329 -12.7221   9.0030 C.ar           1 <1>                0.0000
      5 C5           0.8071 -13.2800   7.7241 C.ar           1 <1>                0.0000
      6 C6           1.0977 -12.4490   6.5947 C.1            1 <1>                0.0000
      7 N7           1.3284 -11.7897   5.6988 N.1            1 <1>                0.0000
      8 C8           0.5975 -14.6517   7.5491 C.ar           1 <1>                0.0000
      9 C9           0.3238 -15.4500   8.6413 C.ar           1 <1>                0.0000
     10 O10          0.1200 -16.7845   8.4745 O.3            1 <1>                0.0000
     11 H11          0.3962 -13.0902  11.0770 H              1 <1>                0.0000
     12 H12          0.8940 -11.6630   9.1401 H              1 <1>                0.0000
     13 H13          0.6538 -15.0862   6.5619 H              1 <1>                0.0000
     14 H14         -0.0877 -15.3017  11.9044 H              1 <1>                0.0000
     15 H15         -0.1866 -16.6429  10.8974 H              1 <1>                0.0000
     16 H16          0.8997 -17.3270   8.6552 H              1 <1>                0.0000
@<TRIPOS>BOND
    1    1    2 1     
    2    1   14 1     
    3    1   15 1     
    4    2    3 ar    
    5    2    9 ar    
    6    3    4 ar    
    7    3   11 1     
    8    4    5 ar    
    9    4   12 1     
   10    5    6 1     
   11    5    8 ar    
   12    6    7 3     
   13    8    9 ar    
   14    8   13 1     
   15    9   10 1     
   16   10   16 1     
@<TRIPOS>SUBSTRUCTURE
      1 ****           1
@<TRIPOS>SET
DONOR_HYDROGENS      STATIC     ATOMS    <user>   **** ""
3 14 15 16
ATOM$RED        STATIC     ATOMS    COLORGROUP SYSTEM
3 14 15 16
@<TRIPOS>COMMENT
> <Gold.Version>
2022.2.0

> <Gold.Id.Protein>
3pbl|protein|mol2

> <Gold.Protein.RotatedTorsions>
[ 1303 1298 1297 1294 ] final    2.62 input  179.99 | X-H torsion
[ 2461 2456 2455 2452 ] final  -35.51 input   30.03 | X-H torsion
[ 2515 2510 2509 2506 ] final  164.88 input  -89.99 | X-H torsion
[ 3721 3712 3711 3710 ] final  106.84 input -179.91 | X-H torsion
[ 3841 3832 3831 3830 ] final -140.85 input -179.91 | X-H torsion
[ 3767 3762 3761 3758 ] final  -70.86 input  -89.99 | X-H torsion
[ 2472 2467 2466 2463 ] final -164.14 input  -89.97 | X-H torsion

> <Gold.Protein.ActiveResidues>
 VAL82   VAL86   LEU89   PHE106  VAL107  ASP110  VAL111  MET112  CYS114  THR115 
 CYS181  SER182  ILE183  PHE188  VAL189  ILE190  SER192  SER193  SER196  TRP342 
 PHE345  PHE346  HIS349  VAL350  TYR365  THR369  GLY372  TYR373 

> <Gold.Protein.RotatedAtoms>
    3.4004   -9.9062    4.0703 H   0  0  0  0  0  0  0  0  0  0  0  0  # atno 1303 bound_to 1298
    0.5608   -8.2797    7.1542 H   0  0  0  0  0  0  0  0  0  0  0  0  # atno 2461 bound_to 2456
   -5.1727   -5.4357    9.2065 H   0  0  0  0  0  0  0  0  0  0  0  0  # atno 2472 bound_to 2467
    2.2261   -8.8563    5.9813 H   0  0  0  0  0  0  0  0  0  0  0  0  # atno 2515 bound_to 2510
   -2.9100  -17.4054   13.0372 H   0  0  0  0  0  0  0  0  0  0  0  0  # atno 3721 bound_to 3712
   -5.3978  -21.9891   10.9599 H   0  0  0  0  0  0  0  0  0  0  0  0  # atno 3767 bound_to 3762
    2.5081  -19.6866    8.3645 H   0  0  0  0  0  0  0  0  0  0  0  0  # atno 3841 bound_to 3832
    4.1974   -8.4810    4.0705 LP  0  0  0  0  0  0  0  0  0  0  0  0  # atno 4297 bound_to 1298
    4.7647   -9.7339    4.9509 LP  0  0  0  0  0  0  0  0  0  0  0  0  # atno 4298 bound_to 1298
    1.0625   -9.2882    8.3368 LP  0  0  0  0  0  0  0  0  0  0  0  0  # atno 4299 bound_to 2456
    2.1142   -8.2402    7.6569 LP  0  0  0  0  0  0  0  0  0  0  0  0  # atno 4300 bound_to 2456
    2.2348   -7.4111    5.2217 LP  0  0  0  0  0  0  0  0  0  0  0  0  # atno 4301 bound_to 2510
    2.8358   -8.7314    4.4719 LP  0  0  0  0  0  0  0  0  0  0  0  0  # atno 4302 bound_to 2510
   -2.6745  -18.0153   14.5036 LP  0  0  0  0  0  0  0  0  0  0  0  0  # atno 4306 bound_to 3712
   -3.4936  -16.6162   14.3078 LP  0  0  0  0  0  0  0  0  0  0  0  0  # atno 4307 bound_to 3712
    2.8917  -21.0799    9.0628 LP  0  0  0  0  0  0  0  0  0  0  0  0  # atno 4314 bound_to 3832
    1.4403  -20.3843    9.3387 LP  0  0  0  0  0  0  0  0  0  0  0  0  # atno 4315 bound_to 3832
   -4.0089  -22.6675   11.4869 LP  0  0  0  0  0  0  0  0  0  0  0  0  # atno 4318 bound_to 3762
   -4.7209  -23.2182   10.1244 LP  0  0  0  0  0  0  0  0  0  0  0  0  # atno 4319 bound_to 3762
   -4.8961   -4.8625    7.7027 LP  0  0  0  0  0  0  0  0  0  0  0  0  # atno 4320 bound_to 2467
   -3.6483   -5.0955    8.7301 LP  0  0  0  0  0  0  0  0  0  0  0  0  # atno 4321 bound_to 2467

> <Gold.Score>
     Score     S(PLP)   S(hbond)     S(cho)   S(metal)  DE(clash)   DE(tors)     intcor
     31.34     -28.37       0.99       0.00       0.00       0.00       0.00       0.00

> <Gold.PLP.Fitness>
31.3411

> <Gold.PLP.PLP>
-28.3651

> <Gold.PLP.part.hbond>
-1.0000

> <Gold.PLP.part.metal>
0.0000

> <Gold.PLP.part.buried>
-2.9153

> <Gold.PLP.part.nonpolar>
-24.7688

> <Gold.PLP.part.repulsive>
0.0782

> <Gold.PLP.ligand.clash>
0.0000

> <Gold.PLP.ligand.torsion>
0.0000

> <Gold.PLP.Chemscore.Hbond>
0.9920

> <Gold.PLP.Chemscore.CHOScore>
0.0000

> <Gold.PLP.Chemscore.Metal>
0.0000

> <Gold.Chemscore.Hbonds>
donor molecule, donor type, donor heavy atom, donor atom, acceptor molecule, acceptor atom, score
      L1  H    10    16       P1  1227  0.99

> <Gold.PLP.Chemscore.Internal.Correction>
0.0000

