#       Name:                EN300-303374_i001
#       Creating user name   fsindt
#       Creation time:       Wed Mar  1 03:33:26 2023


#       File generated by GOLD software.
#

@<TRIPOS>MOLECULE
EN300-303374_i001|amine_1|mol2|7788|dock5
    16    16     1
SMALL
USER_CHARGES


@<TRIPOS>ATOM
      1 N1          -0.3163 -16.7752   9.0653 N.pl3          1 <1>                0.0000
      2 C2           0.0919 -15.5837   8.4669 C.ar           1 <1>                0.0000
      3 C3          -0.3705 -15.2502   7.1996 C.ar           1 <1>                0.0000
      4 C4           0.0302 -14.0738   6.6044 C.ar           1 <1>                0.0000
      5 C5           0.9032 -13.2133   7.2750 C.ar           1 <1>                0.0000
      6 C6           1.3199 -11.9902   6.6577 C.1            1 <1>                0.0000
      7 N7           1.6504 -11.0199   6.1680 N.1            1 <1>                0.0000
      8 C8           1.3689 -13.5484   8.5505 C.ar           1 <1>                0.0000
      9 C9           0.9598 -14.7253   9.1443 C.ar           1 <1>                0.0000
     10 O10          1.4105 -15.0538  10.3849 O.3            1 <1>                0.0000
     11 H11         -1.0450 -15.9146   6.6799 H              1 <1>                0.0000
     12 H12         -0.3303 -13.8170   5.6192 H              1 <1>                0.0000
     13 H13          2.0441 -12.8856   9.0715 H              1 <1>                0.0000
     14 H14         -0.9225 -17.3704   8.5970 H              1 <1>                0.0000
     15 H15          0.0092 -17.0108   9.9481 H              1 <1>                0.0000
     16 H16          2.0175 -15.8064  10.3962 H              1 <1>                0.0000
@<TRIPOS>BOND
    1    1    2 1     
    2    1   14 1     
    3    1   15 1     
    4    2    3 ar    
    5    2    9 ar    
    6    3    4 ar    
    7    3   11 1     
    8    4    5 ar    
    9    4   12 1     
   10    5    6 1     
   11    5    8 ar    
   12    6    7 3     
   13    8    9 ar    
   14    8   13 1     
   15    9   10 1     
   16   10   16 1     
@<TRIPOS>SUBSTRUCTURE
      1 ****           1
@<TRIPOS>SET
DONOR_HYDROGENS      STATIC     ATOMS    <user>   **** ""
3 14 15 16
ATOM$RED        STATIC     ATOMS    COLORGROUP SYSTEM
3 14 15 16
@<TRIPOS>COMMENT
> <Gold.Version>
2022.2.0

> <Gold.Id.Protein>
3pbl|protein|mol2

> <Gold.Protein.RotatedTorsions>
[ 1303 1298 1297 1294 ] final   75.52 input  179.99 | X-H torsion
[ 2461 2456 2455 2452 ] final -120.98 input   30.03 | X-H torsion
[ 2515 2510 2509 2506 ] final -163.48 input  -89.99 | X-H torsion
[ 3721 3712 3711 3710 ] final  -59.76 input -179.91 | X-H torsion
[ 3841 3832 3831 3830 ] final    6.75 input -179.91 | X-H torsion
[ 3767 3762 3761 3758 ] final   81.22 input  -89.99 | X-H torsion
[ 2472 2467 2466 2463 ] final  -36.42 input  -89.97 | X-H torsion

> <Gold.Protein.ActiveResidues>
 VAL82   VAL86   LEU89   PHE106  VAL107  ASP110  VAL111  MET112  CYS114  THR115 
 CYS181  SER182  ILE183  PHE188  VAL189  ILE190  SER192  SER193  SER196  TRP342 
 PHE345  PHE346  HIS349  VAL350  TYR365  THR369  GLY372  TYR373 

> <Gold.Protein.RotatedAtoms>
    4.2217  -10.2215    4.7634 H   0  0  0  0  0  0  0  0  0  0  0  0  # atno 1303 bound_to 1298
    0.5864   -9.1806    8.0631 H   0  0  0  0  0  0  0  0  0  0  0  0  # atno 2461 bound_to 2456
   -3.6351   -5.0520    8.6114 H   0  0  0  0  0  0  0  0  0  0  0  0  # atno 2472 bound_to 2467
    2.4388   -9.1783    5.6419 H   0  0  0  0  0  0  0  0  0  0  0  0  # atno 2515 bound_to 2510
   -2.7982  -17.3342   14.7526 H   0  0  0  0  0  0  0  0  0  0  0  0  # atno 3721 bound_to 3712
   -4.2927  -23.3352   10.3972 H   0  0  0  0  0  0  0  0  0  0  0  0  # atno 3767 bound_to 3762
    1.7992  -20.5620    9.5873 H   0  0  0  0  0  0  0  0  0  0  0  0  # atno 3841 bound_to 3832
    3.3906   -9.2064    3.7913 LP  0  0  0  0  0  0  0  0  0  0  0  0  # atno 4297 bound_to 1298
    4.7498   -8.6931    4.5367 LP  0  0  0  0  0  0  0  0  0  0  0  0  # atno 4298 bound_to 1298
    2.1254   -8.6340    8.0543 LP  0  0  0  0  0  0  0  0  0  0  0  0  # atno 4299 bound_to 2456
    1.0258   -7.9937    7.0308 LP  0  0  0  0  0  0  0  0  0  0  0  0  # atno 4300 bound_to 2456
    2.0794   -7.5860    5.6794 LP  0  0  0  0  0  0  0  0  0  0  0  0  # atno 4301 bound_to 2510
    2.7785   -8.2344    4.3537 LP  0  0  0  0  0  0  0  0  0  0  0  0  # atno 4302 bound_to 2510
   -3.5457  -16.6494   13.5075 LP  0  0  0  0  0  0  0  0  0  0  0  0  # atno 4306 bound_to 3712
   -2.7514  -18.0643   13.3234 LP  0  0  0  0  0  0  0  0  0  0  0  0  # atno 4307 bound_to 3712
    2.0440  -19.6388    8.2974 LP  0  0  0  0  0  0  0  0  0  0  0  0  # atno 4314 bound_to 3832
    3.1070  -20.8142    8.6915 LP  0  0  0  0  0  0  0  0  0  0  0  0  # atno 4315 bound_to 3832
   -5.5111  -22.2557   10.5267 LP  0  0  0  0  0  0  0  0  0  0  0  0  # atno 4318 bound_to 3762
   -4.3234  -22.2845   11.6470 LP  0  0  0  0  0  0  0  0  0  0  0  0  # atno 4319 bound_to 3762
   -5.0704   -5.4503    9.2804 LP  0  0  0  0  0  0  0  0  0  0  0  0  # atno 4320 bound_to 2467
   -5.0112   -4.8912    7.7473 LP  0  0  0  0  0  0  0  0  0  0  0  0  # atno 4321 bound_to 2467

> <Gold.Score>
     Score     S(PLP)   S(hbond)     S(cho)   S(metal)  DE(clash)   DE(tors)     intcor
     36.00     -30.84       1.72       0.00       0.00       0.00       0.00       0.00

> <Gold.PLP.Fitness>
35.9951

> <Gold.PLP.PLP>
-30.8351

> <Gold.PLP.part.hbond>
-3.4038

> <Gold.PLP.part.metal>
0.0000

> <Gold.PLP.part.buried>
-1.4188

> <Gold.PLP.part.nonpolar>
-26.9638

> <Gold.PLP.part.repulsive>
0.0717

> <Gold.PLP.ligand.clash>
0.0000

> <Gold.PLP.ligand.torsion>
0.0000

> <Gold.PLP.Chemscore.Hbond>
1.7200

> <Gold.PLP.Chemscore.CHOScore>
0.0000

> <Gold.PLP.Chemscore.Metal>
0.0000

> <Gold.Chemscore.Hbonds>
donor molecule, donor type, donor heavy atom, donor atom, acceptor molecule, acceptor atom, score
      L1  H    10    16       P1  1227  1.00
      P1  H  2510  2515       L1     7  0.72

> <Gold.PLP.Chemscore.Internal.Correction>
0.0000

