#       Name:                EN300-303374_i001
#       Creating user name   fsindt
#       Creation time:       Wed Mar  1 03:33:28 2023


#       File generated by GOLD software.
#

@<TRIPOS>MOLECULE
EN300-303374_i001|amine_1|mol2|7788|dock12
    16    16     1
SMALL
USER_CHARGES


@<TRIPOS>ATOM
      1 N1           1.6995 -15.0968   8.0309 N.pl3          1 <1>                0.0000
      2 C2           0.8793 -14.1374   8.6235 C.ar           1 <1>                0.0000
      3 C3           0.4072 -14.3315   9.9160 C.ar           1 <1>                0.0000
      4 C4          -0.4035 -13.3861  10.5056 C.ar           1 <1>                0.0000
      5 C5          -0.7526 -12.2292   9.8040 C.ar           1 <1>                0.0000
      6 C6          -1.5946 -11.2458  10.4159 C.1            1 <1>                0.0000
      7 N7          -2.2626 -10.4656  10.9013 N.1            1 <1>                0.0000
      8 C8          -0.2777 -12.0334   8.5031 C.ar           1 <1>                0.0000
      9 C9           0.5387 -12.9809   7.9195 C.ar           1 <1>                0.0000
     10 O10          1.0026 -12.7931   6.6547 O.3            1 <1>                0.0000
     11 H11          0.6759 -15.2254  10.4593 H              1 <1>                0.0000
     12 H12         -0.7695 -13.5394  11.5101 H              1 <1>                0.0000
     13 H13         -0.5459 -11.1404   7.9579 H              1 <1>                0.0000
     14 H14          1.9400 -15.8988   8.5207 H              1 <1>                0.0000
     15 H15          2.0262 -14.9641   7.1272 H              1 <1>                0.0000
     16 H16          1.1796 -13.6137   6.1749 H              1 <1>                0.0000
@<TRIPOS>BOND
    1    1    2 1     
    2    1   14 1     
    3    1   15 1     
    4    2    3 ar    
    5    2    9 ar    
    6    3    4 ar    
    7    3   11 1     
    8    4    5 ar    
    9    4   12 1     
   10    5    6 1     
   11    5    8 ar    
   12    6    7 3     
   13    8    9 ar    
   14    8   13 1     
   15    9   10 1     
   16   10   16 1     
@<TRIPOS>SUBSTRUCTURE
      1 ****           1
@<TRIPOS>SET
DONOR_HYDROGENS      STATIC     ATOMS    <user>   **** ""
3 14 15 16
ATOM$RED        STATIC     ATOMS    COLORGROUP SYSTEM
3 14 15 16
@<TRIPOS>COMMENT
> <Gold.Version>
2022.2.0

> <Gold.Id.Protein>
3pbl|protein|mol2

> <Gold.Protein.RotatedTorsions>
[ 1303 1298 1297 1294 ] final -178.52 input  179.99 | X-H torsion
[ 2461 2456 2455 2452 ] final  132.89 input   30.03 | X-H torsion
[ 2515 2510 2509 2506 ] final -125.01 input  -89.99 | X-H torsion
[ 3721 3712 3711 3710 ] final  -33.31 input -179.91 | X-H torsion
[ 3841 3832 3831 3830 ] final  130.27 input -179.91 | X-H torsion
[ 3767 3762 3761 3758 ] final  170.26 input  -89.99 | X-H torsion
[ 2472 2467 2466 2463 ] final -123.00 input  -89.97 | X-H torsion

> <Gold.Protein.ActiveResidues>
 VAL82   VAL86   LEU89   PHE106  VAL107  ASP110  VAL111  MET112  CYS114  THR115 
 CYS181  SER182  ILE183  PHE188  VAL189  ILE190  SER192  SER193  SER196  TRP342 
 PHE345  PHE346  HIS349  VAL350  TYR365  THR369  GLY372  TYR373 

> <Gold.Protein.RotatedAtoms>
    4.8471   -8.8557    4.6680 H   0  0  0  0  0  0  0  0  0  0  0  0  # atno 1303 bound_to 1298
    2.0392   -8.7974    8.1875 H   0  0  0  0  0  0  0  0  0  0  0  0  # atno 2461 bound_to 2456
   -4.5504   -5.4491    9.4337 H   0  0  0  0  0  0  0  0  0  0  0  0  # atno 2472 bound_to 2467
    2.6884   -9.2276    5.0755 H   0  0  0  0  0  0  0  0  0  0  0  0  # atno 2515 bound_to 2510
   -2.6217  -17.6629   14.6193 H   0  0  0  0  0  0  0  0  0  0  0  0  # atno 3721 bound_to 3712
   -4.0161  -22.6532   11.4959 H   0  0  0  0  0  0  0  0  0  0  0  0  # atno 3767 bound_to 3762
    3.1197  -20.6257    8.8266 H   0  0  0  0  0  0  0  0  0  0  0  0  # atno 3841 bound_to 3832
    4.0286  -10.2684    4.6468 LP  0  0  0  0  0  0  0  0  0  0  0  0  # atno 4297 bound_to 1298
    3.4863   -8.9974    3.7767 LP  0  0  0  0  0  0  0  0  0  0  0  0  # atno 4298 bound_to 1298
    1.2452   -7.9359    7.0496 LP  0  0  0  0  0  0  0  0  0  0  0  0  # atno 4299 bound_to 2456
    0.4536   -9.0750    7.9112 LP  0  0  0  0  0  0  0  0  0  0  0  0  # atno 4300 bound_to 2456
    2.0339   -8.0873    6.0435 LP  0  0  0  0  0  0  0  0  0  0  0  0  # atno 4301 bound_to 2510
    2.5743   -7.6838    4.5563 LP  0  0  0  0  0  0  0  0  0  0  0  0  # atno 4302 bound_to 2510
   -3.5615  -16.5555   13.9350 LP  0  0  0  0  0  0  0  0  0  0  0  0  # atno 4306 bound_to 3712
   -2.9394  -17.7786   13.0498 LP  0  0  0  0  0  0  0  0  0  0  0  0  # atno 4307 bound_to 3712
    1.6753  -20.7452    9.5162 LP  0  0  0  0  0  0  0  0  0  0  0  0  # atno 4314 bound_to 3832
    1.9503  -19.6343    8.3514 LP  0  0  0  0  0  0  0  0  0  0  0  0  # atno 4315 bound_to 3832
   -4.7051  -23.2258   10.1305 LP  0  0  0  0  0  0  0  0  0  0  0  0  # atno 4318 bound_to 3762
   -5.4059  -21.9960   10.9449 LP  0  0  0  0  0  0  0  0  0  0  0  0  # atno 4319 bound_to 3762
   -5.3952   -5.0578    8.0922 LP  0  0  0  0  0  0  0  0  0  0  0  0  # atno 4320 bound_to 2467
   -3.7713   -4.8868    8.1134 LP  0  0  0  0  0  0  0  0  0  0  0  0  # atno 4321 bound_to 2467

> <Gold.Score>
     Score     S(PLP)   S(hbond)     S(cho)   S(metal)  DE(clash)   DE(tors)     intcor
     33.69     -30.69       1.00       0.00       0.00       0.00       0.00       0.00

> <Gold.PLP.Fitness>
33.6925

> <Gold.PLP.PLP>
-30.6925

> <Gold.PLP.part.hbond>
-1.6155

> <Gold.PLP.part.metal>
0.0000

> <Gold.PLP.part.buried>
-4.7649

> <Gold.PLP.part.nonpolar>
-24.6360

> <Gold.PLP.part.repulsive>
0.1248

> <Gold.PLP.ligand.clash>
0.0000

> <Gold.PLP.ligand.torsion>
0.0000

> <Gold.PLP.Chemscore.Hbond>
1.0000

> <Gold.PLP.Chemscore.CHOScore>
0.0000

> <Gold.PLP.Chemscore.Metal>
0.0000

> <Gold.Chemscore.Hbonds>
donor molecule, donor type, donor heavy atom, donor atom, acceptor molecule, acceptor atom, score
      L1  H     1    14       P1  1227  1.00

> <Gold.PLP.Chemscore.Internal.Correction>
0.0000

