#       Name:                EN300-303374_i001
#       Creating user name   fsindt
#       Creation time:       Wed Mar  1 03:33:30 2023


#       File generated by GOLD software.
#

@<TRIPOS>MOLECULE
EN300-303374_i001|amine_1|mol2|7788|dock18
    16    16     1
SMALL
USER_CHARGES


@<TRIPOS>ATOM
      1 N1          -0.3980 -15.1771  12.7139 N.pl3          1 <1>                0.0000
      2 C2          -0.2507 -14.3150  11.6278 C.ar           1 <1>                0.0000
      3 C3          -1.1009 -13.2249  11.4875 C.ar           1 <1>                0.0000
      4 C4          -0.9590 -12.3703  10.4159 C.ar           1 <1>                0.0000
      5 C5           0.0413 -12.5988   9.4675 C.ar           1 <1>                0.0000
      6 C6           0.1901 -11.7110   8.3537 C.1            1 <1>                0.0000
      7 N7           0.3082 -11.0069   7.4701 N.1            1 <1>                0.0000
      8 C8           0.8974 -13.6958   9.6082 C.ar           1 <1>                0.0000
      9 C9           0.7544 -14.5453  10.6866 C.ar           1 <1>                0.0000
     10 O10          1.5856 -15.6128  10.8266 O.3            1 <1>                0.0000
     11 H11         -1.8748 -13.0473  12.2196 H              1 <1>                0.0000
     12 H12         -1.6213 -11.5239  10.3088 H              1 <1>                0.0000
     13 H13          1.6715 -13.8755   8.8767 H              1 <1>                0.0000
     14 H14         -1.0934 -15.0157  13.3705 H              1 <1>                0.0000
     15 H15          0.1924 -15.9407  12.8104 H              1 <1>                0.0000
     16 H16          1.8985 -15.9801   9.9886 H              1 <1>                0.0000
@<TRIPOS>BOND
    1    1    2 1     
    2    1   14 1     
    3    1   15 1     
    4    2    3 ar    
    5    2    9 ar    
    6    3    4 ar    
    7    3   11 1     
    8    4    5 ar    
    9    4   12 1     
   10    5    6 1     
   11    5    8 ar    
   12    6    7 3     
   13    8    9 ar    
   14    8   13 1     
   15    9   10 1     
   16   10   16 1     
@<TRIPOS>SUBSTRUCTURE
      1 ****           1
@<TRIPOS>SET
DONOR_HYDROGENS      STATIC     ATOMS    <user>   **** ""
3 14 15 16
ATOM$RED        STATIC     ATOMS    COLORGROUP SYSTEM
3 14 15 16
@<TRIPOS>COMMENT
> <Gold.Version>
2022.2.0

> <Gold.Id.Protein>
3pbl|protein|mol2

> <Gold.Protein.RotatedTorsions>
[ 1303 1298 1297 1294 ] final  -48.53 input  179.99 | X-H torsion
[ 2461 2456 2455 2452 ] final -120.61 input   30.03 | X-H torsion
[ 2515 2510 2509 2506 ] final  -74.81 input  -89.99 | X-H torsion
[ 3721 3712 3711 3710 ] final  -73.36 input -179.91 | X-H torsion
[ 3841 3832 3831 3830 ] final -104.01 input -179.91 | X-H torsion
[ 3767 3762 3761 3758 ] final -167.47 input  -89.99 | X-H torsion
[ 2472 2467 2466 2463 ] final -172.69 input  -89.97 | X-H torsion

> <Gold.Protein.ActiveResidues>
 VAL82   VAL86   LEU89   PHE106  VAL107  ASP110  VAL111  MET112  CYS114  THR115 
 CYS181  SER182  ILE183  PHE188  VAL189  ILE190  SER192  SER193  SER196  TRP342 
 PHE345  PHE346  HIS349  VAL350  TYR365  THR369  GLY372  TYR373 

> <Gold.Protein.RotatedAtoms>
    3.4138   -9.1444    3.7840 H   0  0  0  0  0  0  0  0  0  0  0  0  # atno 1303 bound_to 1298
    0.5823   -9.1782    8.0593 H   0  0  0  0  0  0  0  0  0  0  0  0  # atno 2461 bound_to 2456
   -5.2731   -5.4123    9.1109 H   0  0  0  0  0  0  0  0  0  0  0  0  # atno 2472 bound_to 2467
    2.8358   -8.7267    4.4699 H   0  0  0  0  0  0  0  0  0  0  0  0  # atno 2515 bound_to 2510
   -2.9003  -17.1562   14.7515 H   0  0  0  0  0  0  0  0  0  0  0  0  # atno 3721 bound_to 3712
   -4.2212  -22.3820   11.6265 H   0  0  0  0  0  0  0  0  0  0  0  0  # atno 3767 bound_to 3762
    2.0148  -19.5817    8.5760 H   0  0  0  0  0  0  0  0  0  0  0  0  # atno 3841 bound_to 3832
    4.7823   -8.7363    4.5760 LP  0  0  0  0  0  0  0  0  0  0  0  0  # atno 4297 bound_to 1298
    4.1664  -10.2407    4.7318 LP  0  0  0  0  0  0  0  0  0  0  0  0  # atno 4298 bound_to 1298
    2.1237   -8.6384    8.0581 LP  0  0  0  0  0  0  0  0  0  0  0  0  # atno 4299 bound_to 2456
    1.0315   -7.9917    7.0308 LP  0  0  0  0  0  0  0  0  0  0  0  0  # atno 4300 bound_to 2456
    2.2278   -8.8607    5.9792 LP  0  0  0  0  0  0  0  0  0  0  0  0  # atno 4301 bound_to 2510
    2.2329   -7.4115    5.2265 LP  0  0  0  0  0  0  0  0  0  0  0  0  # atno 4302 bound_to 2510
   -3.4992  -16.7605   13.3153 LP  0  0  0  0  0  0  0  0  0  0  0  0  # atno 4306 bound_to 3712
   -2.6801  -18.1587   13.5169 LP  0  0  0  0  0  0  0  0  0  0  0  0  # atno 4307 bound_to 3712
    3.1228  -20.7421    8.6172 LP  0  0  0  0  0  0  0  0  0  0  0  0  # atno 4314 bound_to 3832
    1.7792  -20.8433    9.5398 LP  0  0  0  0  0  0  0  0  0  0  0  0  # atno 4315 bound_to 3832
   -4.4014  -23.3249   10.3054 LP  0  0  0  0  0  0  0  0  0  0  0  0  # atno 4318 bound_to 3762
   -5.5046  -22.1681   10.6395 LP  0  0  0  0  0  0  0  0  0  0  0  0  # atno 4319 bound_to 3762
   -4.7616   -4.8363    7.6712 LP  0  0  0  0  0  0  0  0  0  0  0  0  # atno 4320 bound_to 2467
   -3.6823   -5.1450    8.8571 LP  0  0  0  0  0  0  0  0  0  0  0  0  # atno 4321 bound_to 2467

> <Gold.Score>
     Score     S(PLP)   S(hbond)     S(cho)   S(metal)  DE(clash)   DE(tors)     intcor
     32.21     -27.60       1.54       0.00       0.00       0.00       0.00       0.00

> <Gold.PLP.Fitness>
32.2113

> <Gold.PLP.PLP>
-27.6033

> <Gold.PLP.part.hbond>
-1.9078

> <Gold.PLP.part.metal>
0.0000

> <Gold.PLP.part.buried>
-3.0409

> <Gold.PLP.part.nonpolar>
-23.5493

> <Gold.PLP.part.repulsive>
0.1066

> <Gold.PLP.ligand.clash>
0.0000

> <Gold.PLP.ligand.torsion>
0.0000

> <Gold.PLP.Chemscore.Hbond>
1.5360

> <Gold.PLP.Chemscore.CHOScore>
0.0000

> <Gold.PLP.Chemscore.Metal>
0.0000

> <Gold.Chemscore.Hbonds>
donor molecule, donor type, donor heavy atom, donor atom, acceptor molecule, acceptor atom, score
      L1  H    10    16       P1  1227  0.66
      P1  H  2456  2461       L1     7  0.88

> <Gold.PLP.Chemscore.Internal.Correction>
0.0000

