#       Name:                EN300-303374_i001
#       Creating user name   fsindt
#       Creation time:       Wed Mar  1 03:33:28 2023


#       File generated by GOLD software.
#

@<TRIPOS>MOLECULE
EN300-303374_i001|amine_1|mol2|7788|dock13
    16    16     1
SMALL
USER_CHARGES


@<TRIPOS>ATOM
      1 N1           1.0502 -11.1840   6.8427 N.pl3          1 <1>                0.0000
      2 C2           0.8386 -12.2276   7.7430 C.ar           1 <1>                0.0000
      3 C3           1.0970 -13.5379   7.3591 C.ar           1 <1>                0.0000
      4 C4           0.8894 -14.5722   8.2455 C.ar           1 <1>                0.0000
      5 C5           0.4180 -14.3049   9.5334 C.ar           1 <1>                0.0000
      6 C6           0.2023 -15.3790  10.4557 C.1            1 <1>                0.0000
      7 N7           0.0311 -16.2310  11.1873 N.1            1 <1>                0.0000
      8 C8           0.1577 -12.9864   9.9204 C.ar           1 <1>                0.0000
      9 C9           0.3730 -11.9537   9.0304 C.ar           1 <1>                0.0000
     10 O10          0.1213 -10.6702   9.4038 O.3            1 <1>                0.0000
     11 H11          1.4610 -13.7460   6.3638 H              1 <1>                0.0000
     12 H12          1.0906 -15.5898   7.9446 H              1 <1>                0.0000
     13 H13         -0.2070 -12.7763  10.9151 H              1 <1>                0.0000
     14 H14          1.3776 -11.3730   5.9493 H              1 <1>                0.0000
     15 H15          0.8662 -10.2695   7.1084 H              1 <1>                0.0000
     16 H16          0.5892 -10.0083   8.8767 H              1 <1>                0.0000
@<TRIPOS>BOND
    1    1    2 1     
    2    1   14 1     
    3    1   15 1     
    4    2    3 ar    
    5    2    9 ar    
    6    3    4 ar    
    7    3   11 1     
    8    4    5 ar    
    9    4   12 1     
   10    5    6 1     
   11    5    8 ar    
   12    6    7 3     
   13    8    9 ar    
   14    8   13 1     
   15    9   10 1     
   16   10   16 1     
@<TRIPOS>SUBSTRUCTURE
      1 ****           1
@<TRIPOS>SET
DONOR_HYDROGENS      STATIC     ATOMS    <user>   **** ""
3 14 15 16
ATOM$RED        STATIC     ATOMS    COLORGROUP SYSTEM
3 14 15 16
@<TRIPOS>COMMENT
> <Gold.Version>
2022.2.0

> <Gold.Id.Protein>
3pbl|protein|mol2

> <Gold.Protein.RotatedTorsions>
[ 1303 1298 1297 1294 ] final -170.88 input  179.99 | X-H torsion
[ 2461 2456 2455 2452 ] final   38.89 input   30.03 | X-H torsion
[ 2515 2510 2509 2506 ] final   28.46 input  -89.99 | X-H torsion
[ 3721 3712 3711 3710 ] final   86.44 input -179.91 | X-H torsion
[ 3841 3832 3831 3830 ] final  -74.37 input -179.91 | X-H torsion
[ 3767 3762 3761 3758 ] final  -31.33 input  -89.99 | X-H torsion
[ 2472 2467 2466 2463 ] final -105.25 input  -89.97 | X-H torsion

> <Gold.Protein.ActiveResidues>
 VAL82   VAL86   LEU89   PHE106  VAL107  ASP110  VAL111  MET112  CYS114  THR115 
 CYS181  SER182  ILE183  PHE188  VAL189  ILE190  SER192  SER193  SER196  TRP342 
 PHE345  PHE346  HIS349  VAL350  TYR365  THR369  GLY372  TYR373 

> <Gold.Protein.RotatedAtoms>
    4.7991   -8.7628    4.5986 H   0  0  0  0  0  0  0  0  0  0  0  0  # atno 1303 bound_to 1298
    1.6467   -7.9329    7.1868 H   0  0  0  0  0  0  0  0  0  0  0  0  # atno 2461 bound_to 2456
   -4.2657   -5.4039    9.3952 H   0  0  0  0  0  0  0  0  0  0  0  0  # atno 2472 bound_to 2467
    2.3426   -7.4286    4.9756 H   0  0  0  0  0  0  0  0  0  0  0  0  # atno 2515 bound_to 2510
   -2.7582  -17.6564   13.1272 H   0  0  0  0  0  0  0  0  0  0  0  0  # atno 3721 bound_to 3712
   -5.5019  -22.3368   10.4355 H   0  0  0  0  0  0  0  0  0  0  0  0  # atno 3767 bound_to 3762
    1.7060  -19.6981    8.8715 H   0  0  0  0  0  0  0  0  0  0  0  0  # atno 3841 bound_to 3832
    4.1338  -10.2497    4.7126 LP  0  0  0  0  0  0  0  0  0  0  0  0  # atno 4297 bound_to 1298
    3.4291   -9.1091    3.7803 LP  0  0  0  0  0  0  0  0  0  0  0  0  # atno 4298 bound_to 1298
    0.3329   -8.8091    7.6035 LP  0  0  0  0  0  0  0  0  0  0  0  0  # atno 4299 bound_to 2456
    1.7583   -9.0660    8.3577 LP  0  0  0  0  0  0  0  0  0  0  0  0  # atno 4300 bound_to 2456
    2.8179   -8.9512    4.6267 LP  0  0  0  0  0  0  0  0  0  0  0  0  # atno 4301 bound_to 2510
    2.1363   -8.6198    6.0731 LP  0  0  0  0  0  0  0  0  0  0  0  0  # atno 4302 bound_to 2510
   -2.7860  -17.7860   14.7273 LP  0  0  0  0  0  0  0  0  0  0  0  0  # atno 4306 bound_to 3712
   -3.5574  -16.5557   13.9803 LP  0  0  0  0  0  0  0  0  0  0  0  0  # atno 4307 bound_to 3712
    3.0581  -20.3611    8.3162 LP  0  0  0  0  0  0  0  0  0  0  0  0  # atno 4314 bound_to 3832
    2.2006  -21.0899    9.4996 LP  0  0  0  0  0  0  0  0  0  0  0  0  # atno 4315 bound_to 3832
   -4.4179  -22.2064   11.6500 LP  0  0  0  0  0  0  0  0  0  0  0  0  # atno 4318 bound_to 3762
   -4.2078  -23.3317   10.4854 LP  0  0  0  0  0  0  0  0  0  0  0  0  # atno 4319 bound_to 3762
   -5.4931   -5.1601    8.3462 LP  0  0  0  0  0  0  0  0  0  0  0  0  # atno 4320 bound_to 2467
   -3.9581   -4.8296    7.8979 LP  0  0  0  0  0  0  0  0  0  0  0  0  # atno 4321 bound_to 2467

> <Gold.Score>
     Score     S(PLP)   S(hbond)     S(cho)   S(metal)  DE(clash)   DE(tors)     intcor
     34.19     -28.19       2.00       0.00       0.00       0.00       0.00       0.00

> <Gold.PLP.Fitness>
34.1919

> <Gold.PLP.PLP>
-28.1919

> <Gold.PLP.part.hbond>
-2.0000

> <Gold.PLP.part.metal>
0.0000

> <Gold.PLP.part.buried>
-3.6397

> <Gold.PLP.part.nonpolar>
-23.4960

> <Gold.PLP.part.repulsive>
0.0917

> <Gold.PLP.ligand.clash>
0.0000

> <Gold.PLP.ligand.torsion>
0.0000

> <Gold.PLP.Chemscore.Hbond>
2.0000

> <Gold.PLP.Chemscore.CHOScore>
0.0000

> <Gold.PLP.Chemscore.Metal>
0.0000

> <Gold.Chemscore.Hbonds>
donor molecule, donor type, donor heavy atom, donor atom, acceptor molecule, acceptor atom, score
      L1  H     1    15       P1  2456  1.00
      L1  H    10    16       P1  2456  1.00

> <Gold.PLP.Chemscore.Internal.Correction>
0.0000

