#       Name:                EN300-303374_i001
#       Creating user name   fsindt
#       Creation time:       Wed Mar  1 03:33:24 2023


#       File generated by GOLD software.
#

@<TRIPOS>MOLECULE
EN300-303374_i001|amine_1|mol2|7788|dock1
    16    16     1
SMALL
USER_CHARGES


@<TRIPOS>ATOM
      1 N1           1.0940 -16.1937  11.2400 N.pl3          1 <1>                0.0000
      2 C2           0.4408 -14.9879  10.9873 C.ar           1 <1>                0.0000
      3 C3          -0.3988 -14.4392  11.9491 C.ar           1 <1>                0.0000
      4 C4          -1.0463 -13.2478  11.7037 C.ar           1 <1>                0.0000
      5 C5          -0.8595 -12.5888  10.4859 C.ar           1 <1>                0.0000
      6 C6          -1.5314 -11.3504  10.2300 C.1            1 <1>                0.0000
      7 N7          -2.0645 -10.3680  10.0271 N.1            1 <1>                0.0000
      8 C8          -0.0146 -13.1406   9.5175 C.ar           1 <1>                0.0000
      9 C9           0.6360 -14.3312   9.7709 C.ar           1 <1>                0.0000
     10 O10          1.4587 -14.8702   8.8313 O.3            1 <1>                0.0000
     11 H11         -0.5444 -14.9477  12.8907 H              1 <1>                0.0000
     12 H12         -1.6986 -12.8236  12.4527 H              1 <1>                0.0000
     13 H13          0.1318 -12.6339   8.5750 H              1 <1>                0.0000
     14 H14          0.9621 -16.6486  12.0865 H              1 <1>                0.0000
     15 H15          1.6770 -16.5795  10.5676 H              1 <1>                0.0000
     16 H16          1.8850 -15.6930   9.1073 H              1 <1>                0.0000
@<TRIPOS>BOND
    1    1    2 1     
    2    1   14 1     
    3    1   15 1     
    4    2    3 ar    
    5    2    9 ar    
    6    3    4 ar    
    7    3   11 1     
    8    4    5 ar    
    9    4   12 1     
   10    5    6 1     
   11    5    8 ar    
   12    6    7 3     
   13    8    9 ar    
   14    8   13 1     
   15    9   10 1     
   16   10   16 1     
@<TRIPOS>SUBSTRUCTURE
      1 ****           1
@<TRIPOS>SET
DONOR_HYDROGENS      STATIC     ATOMS    <user>   **** ""
3 14 15 16
ATOM$RED        STATIC     ATOMS    COLORGROUP SYSTEM
3 14 15 16
@<TRIPOS>COMMENT
> <Gold.Version>
2022.2.0

> <Gold.Id.Protein>
3pbl|protein|mol2

> <Gold.Protein.RotatedTorsions>
[ 1303 1298 1297 1294 ] final  120.84 input  179.99 | X-H torsion
[ 2461 2456 2455 2452 ] final   83.19 input   30.03 | X-H torsion
[ 2515 2510 2509 2506 ] final   76.55 input  -89.99 | X-H torsion
[ 3721 3712 3711 3710 ] final  -28.46 input -179.91 | X-H torsion
[ 3841 3832 3831 3830 ] final  101.58 input -179.91 | X-H torsion
[ 3767 3762 3761 3758 ] final  -32.05 input  -89.99 | X-H torsion
[ 2472 2467 2466 2463 ] final  -57.55 input  -89.97 | X-H torsion

> <Gold.Protein.ActiveResidues>
 VAL82   VAL86   LEU89   PHE106  VAL107  ASP110  VAL111  MET112  CYS114  THR115 
 CYS181  SER182  ILE183  PHE188  VAL189  ILE190  SER192  SER193  SER196  TRP342 
 PHE345  PHE346  HIS349  VAL350  TYR365  THR369  GLY372  TYR373 

> <Gold.Protein.RotatedAtoms>
    4.7496   -9.7592    4.9508 H   0  0  0  0  0  0  0  0  0  0  0  0  # atno 1303 bound_to 1298
    2.1076   -8.2269    7.6414 H   0  0  0  0  0  0  0  0  0  0  0  0  # atno 2461 bound_to 2456
   -3.7104   -5.1737    8.9261 H   0  0  0  0  0  0  0  0  0  0  0  0  # atno 2472 bound_to 2467
    2.0796   -7.5866    5.6797 H   0  0  0  0  0  0  0  0  0  0  0  0  # atno 2515 bound_to 2510
   -2.5948  -17.7164   14.5771 H   0  0  0  0  0  0  0  0  0  0  0  0  # atno 3721 bound_to 3712
   -5.5033  -22.3287   10.4440 H   0  0  0  0  0  0  0  0  0  0  0  0  # atno 3767 bound_to 3762
    2.9549  -20.8645    9.1425 H   0  0  0  0  0  0  0  0  0  0  0  0  # atno 3841 bound_to 3832
    3.3906   -9.8836    4.0541 LP  0  0  0  0  0  0  0  0  0  0  0  0  # atno 4297 bound_to 1298
    4.2217   -8.4784    4.0864 LP  0  0  0  0  0  0  0  0  0  0  0  0  # atno 4298 bound_to 1298
    0.5474   -8.2937    7.1634 LP  0  0  0  0  0  0  0  0  0  0  0  0  # atno 4299 bound_to 2456
    1.0830   -9.2875    8.3433 LP  0  0  0  0  0  0  0  0  0  0  0  0  # atno 4300 bound_to 2456
    2.7784   -8.2340    4.3537 LP  0  0  0  0  0  0  0  0  0  0  0  0  # atno 4301 bound_to 2510
    2.4388   -9.1789    5.6416 LP  0  0  0  0  0  0  0  0  0  0  0  0  # atno 4302 bound_to 2510
   -3.5534  -16.5572   14.0156 LP  0  0  0  0  0  0  0  0  0  0  0  0  # atno 4306 bound_to 3712
   -2.9785  -17.7152   13.0180 LP  0  0  0  0  0  0  0  0  0  0  0  0  # atno 4307 bound_to 3712
    1.4376  -20.3773    9.3340 LP  0  0  0  0  0  0  0  0  0  0  0  0  # atno 4314 bound_to 3832
    2.3783  -19.7263    8.1687 LP  0  0  0  0  0  0  0  0  0  0  0  0  # atno 4315 bound_to 3832
   -4.4086  -22.2136   11.6503 LP  0  0  0  0  0  0  0  0  0  0  0  0  # atno 4318 bound_to 3762
   -4.2157  -23.3326   10.4767 LP  0  0  0  0  0  0  0  0  0  0  0  0  # atno 4319 bound_to 3762
   -5.3233   -5.3955    9.0512 LP  0  0  0  0  0  0  0  0  0  0  0  0  # atno 4320 bound_to 2467
   -4.6830   -4.8243    7.6619 LP  0  0  0  0  0  0  0  0  0  0  0  0  # atno 4321 bound_to 2467

> <Gold.Score>
     Score     S(PLP)   S(hbond)     S(cho)   S(metal)  DE(clash)   DE(tors)     intcor
     35.65     -29.65       2.00       0.00       0.00       0.00       0.00       0.00

> <Gold.PLP.Fitness>
35.6512

> <Gold.PLP.PLP>
-29.6512

> <Gold.PLP.part.hbond>
-2.0000

> <Gold.PLP.part.metal>
0.0000

> <Gold.PLP.part.buried>
-4.2137

> <Gold.PLP.part.nonpolar>
-24.1458

> <Gold.PLP.part.repulsive>
0.0589

> <Gold.PLP.ligand.clash>
0.0000

> <Gold.PLP.ligand.torsion>
0.0000

> <Gold.PLP.Chemscore.Hbond>
2.0000

> <Gold.PLP.Chemscore.CHOScore>
0.0000

> <Gold.PLP.Chemscore.Metal>
0.0000

> <Gold.Chemscore.Hbonds>
donor molecule, donor type, donor heavy atom, donor atom, acceptor molecule, acceptor atom, score
      L1  H     1    15       P1  1227  1.00
      L1  H    10    16       P1  1227  1.00

> <Gold.PLP.Chemscore.Internal.Correction>
0.0000

