#       Name:                EN300-303374_i001
#       Creating user name   fsindt
#       Creation time:       Wed Mar  1 03:33:32 2023


#       File generated by GOLD software.
#

@<TRIPOS>MOLECULE
EN300-303374_i001|amine_1|mol2|7788|dock20
    16    16     1
SMALL
USER_CHARGES


@<TRIPOS>ATOM
      1 N1          -1.9108  -9.2997   9.6223 N.pl3          1 <1>                0.0000
      2 C2          -1.4562 -10.5800   9.9360 C.ar           1 <1>                0.0000
      3 C3          -1.8857 -11.2021  11.1021 C.ar           1 <1>                0.0000
      4 C4          -1.4392 -12.4673  11.4161 C.ar           1 <1>                0.0000
      5 C5          -0.5526 -13.1277  10.5615 C.ar           1 <1>                0.0000
      6 C6          -0.0883 -14.4427  10.8865 C.1            1 <1>                0.0000
      7 N7           0.2799 -15.4860  11.1444 N.1            1 <1>                0.0000
      8 C8          -0.1200 -12.5021   9.3878 C.ar           1 <1>                0.0000
      9 C9          -0.5750 -11.2371   9.0753 C.ar           1 <1>                0.0000
     10 O10         -0.1564 -10.6262   7.9343 O.3            1 <1>                0.0000
     11 H11         -2.5707 -10.6927  11.7637 H              1 <1>                0.0000
     12 H12         -1.7742 -12.9485  12.3231 H              1 <1>                0.0000
     13 H13          0.5655 -13.0096   8.7251 H              1 <1>                0.0000
     14 H14         -2.5262  -8.8440  10.2177 H              1 <1>                0.0000
     15 H15         -1.6083  -8.8631   8.8107 H              1 <1>                0.0000
     16 H16          0.0650  -9.6917   8.0471 H              1 <1>                0.0000
@<TRIPOS>BOND
    1    1    2 1     
    2    1   14 1     
    3    1   15 1     
    4    2    3 ar    
    5    2    9 ar    
    6    3    4 ar    
    7    3   11 1     
    8    4    5 ar    
    9    4   12 1     
   10    5    6 1     
   11    5    8 ar    
   12    6    7 3     
   13    8    9 ar    
   14    8   13 1     
   15    9   10 1     
   16   10   16 1     
@<TRIPOS>SUBSTRUCTURE
      1 ****           1
@<TRIPOS>SET
DONOR_HYDROGENS      STATIC     ATOMS    <user>   **** ""
3 14 15 16
ATOM$RED        STATIC     ATOMS    COLORGROUP SYSTEM
3 14 15 16
@<TRIPOS>COMMENT
> <Gold.Version>
2022.2.0

> <Gold.Id.Protein>
3pbl|protein|mol2

> <Gold.Protein.RotatedTorsions>
[ 1303 1298 1297 1294 ] final  143.58 input  179.99 | X-H torsion
[ 2461 2456 2455 2452 ] final   29.71 input   30.03 | X-H torsion
[ 2515 2510 2509 2506 ] final   22.70 input  -89.99 | X-H torsion
[ 3721 3712 3711 3710 ] final -113.88 input -179.91 | X-H torsion
[ 3841 3832 3831 3830 ] final   67.72 input -179.91 | X-H torsion
[ 3767 3762 3761 3758 ] final  -60.98 input  -89.99 | X-H torsion
[ 2472 2467 2466 2463 ] final   42.59 input  -89.97 | X-H torsion

> <Gold.Protein.ActiveResidues>
 VAL82   VAL86   LEU89   PHE106  VAL107  ASP110  VAL111  MET112  CYS114  THR115 
 CYS181  SER182  ILE183  PHE188  VAL189  ILE190  SER192  SER193  SER196  TRP342 
 PHE345  PHE346  HIS349  VAL350  TYR365  THR369  GLY372  TYR373 

> <Gold.Protein.RotatedAtoms>
    4.8861   -9.4157    4.9124 H   0  0  0  0  0  0  0  0  0  0  0  0  # atno 1303 bound_to 1298
    1.5101   -7.9178    7.1241 H   0  0  0  0  0  0  0  0  0  0  0  0  # atno 2461 bound_to 2456
   -4.3601   -4.7996    7.6897 H   0  0  0  0  0  0  0  0  0  0  0  0  # atno 2472 bound_to 2467
    2.3825   -7.4524    4.8931 H   0  0  0  0  0  0  0  0  0  0  0  0  # atno 2515 bound_to 2510
   -3.1835  -16.7045   14.4765 H   0  0  0  0  0  0  0  0  0  0  0  0  # atno 3721 bound_to 3712
   -5.4581  -22.0531   10.8234 H   0  0  0  0  0  0  0  0  0  0  0  0  # atno 3767 bound_to 3762
    2.5740  -20.9557    9.4599 H   0  0  0  0  0  0  0  0  0  0  0  0  # atno 3841 bound_to 3832
    3.5652  -10.1299    4.2710 LP  0  0  0  0  0  0  0  0  0  0  0  0  # atno 4297 bound_to 1298
    3.9106   -8.5757    3.9079 LP  0  0  0  0  0  0  0  0  0  0  0  0  # atno 4298 bound_to 1298
    0.3549   -8.9108    7.7128 LP  0  0  0  0  0  0  0  0  0  0  0  0  # atno 4299 bound_to 2456
    1.8728   -8.9793    8.3111 LP  0  0  0  0  0  0  0  0  0  0  0  0  # atno 4300 bound_to 2456
    2.8040   -9.0171    4.6933 LP  0  0  0  0  0  0  0  0  0  0  0  0  # atno 4301 bound_to 2510
    2.1102   -8.5301    6.0890 LP  0  0  0  0  0  0  0  0  0  0  0  0  # atno 4302 bound_to 2510
   -3.2399  -17.2659   12.9734 LP  0  0  0  0  0  0  0  0  0  0  0  0  # atno 4306 bound_to 3712
   -2.6123  -18.1747   14.1762 LP  0  0  0  0  0  0  0  0  0  0  0  0  # atno 4307 bound_to 3712
    1.4181  -19.9562    8.9691 LP  0  0  0  0  0  0  0  0  0  0  0  0  # atno 4314 bound_to 3832
    2.8379  -20.0421    8.1669 LP  0  0  0  0  0  0  0  0  0  0  0  0  # atno 4315 bound_to 3832
   -4.0864  -22.5452   11.5603 LP  0  0  0  0  0  0  0  0  0  0  0  0  # atno 4318 bound_to 3762
   -4.5832  -23.2765   10.1874 LP  0  0  0  0  0  0  0  0  0  0  0  0  # atno 4319 bound_to 3762
   -3.8873   -5.2825    9.1762 LP  0  0  0  0  0  0  0  0  0  0  0  0  # atno 4320 bound_to 2467
   -5.4695   -5.3113    8.7731 LP  0  0  0  0  0  0  0  0  0  0  0  0  # atno 4321 bound_to 2467

> <Gold.Score>
     Score     S(PLP)   S(hbond)     S(cho)   S(metal)  DE(clash)   DE(tors)     intcor
     33.67     -29.91       1.25       0.00       0.00       0.00       0.00       0.00

> <Gold.PLP.Fitness>
33.6653

> <Gold.PLP.PLP>
-29.9118

> <Gold.PLP.part.hbond>
-1.9950

> <Gold.PLP.part.metal>
0.0000

> <Gold.PLP.part.buried>
-3.3674

> <Gold.PLP.part.nonpolar>
-25.9477

> <Gold.PLP.part.repulsive>
0.1949

> <Gold.PLP.ligand.clash>
0.0000

> <Gold.PLP.ligand.torsion>
0.0000

> <Gold.PLP.Chemscore.Hbond>
1.2512

> <Gold.PLP.Chemscore.CHOScore>
0.0000

> <Gold.PLP.Chemscore.Metal>
0.0000

> <Gold.Chemscore.Hbonds>
donor molecule, donor type, donor heavy atom, donor atom, acceptor molecule, acceptor atom, score
      L1  H     1    14       P1  2398  0.25
      L1  H    10    16       P1  2456  1.00

> <Gold.PLP.Chemscore.Internal.Correction>
0.0000

