#       Name:                EN300-303374_i001
#       Creating user name   fsindt
#       Creation time:       Wed Mar  1 03:33:30 2023


#       File generated by GOLD software.
#

@<TRIPOS>MOLECULE
EN300-303374_i001|amine_1|mol2|7788|dock17
    16    16     1
SMALL
USER_CHARGES


@<TRIPOS>ATOM
      1 N1          -0.6777 -13.5504  10.8630 N.pl3          1 <1>                0.0000
      2 C2          -0.0939 -13.1069   9.6769 C.ar           1 <1>                0.0000
      3 C3          -0.2945 -11.7992   9.2519 C.ar           1 <1>                0.0000
      4 C4           0.2805 -11.3565   8.0805 C.ar           1 <1>                0.0000
      5 C5           1.0672 -12.2230   7.3171 C.ar           1 <1>                0.0000
      6 C6           1.6657 -11.7639   6.0998 C.1            1 <1>                0.0000
      7 N7           2.1404 -11.3997   5.1342 N.1            1 <1>                0.0000
      8 C8           1.2695 -13.5393   7.7444 C.ar           1 <1>                0.0000
      9 C9           0.6959 -13.9756   8.9215 C.ar           1 <1>                0.0000
     10 O10          0.8911 -15.2551   9.3400 O.3            1 <1>                0.0000
     11 H11         -0.9027 -11.1285   9.8407 H              1 <1>                0.0000
     12 H12          0.1227 -10.3398   7.7521 H              1 <1>                0.0000
     13 H13          1.8768 -14.2117   7.1566 H              1 <1>                0.0000
     14 H14         -1.2232 -12.9463  11.3906 H              1 <1>                0.0000
     15 H15         -0.5415 -14.4643  11.1583 H              1 <1>                0.0000
     16 H16          1.7771 -15.5972   9.1587 H              1 <1>                0.0000
@<TRIPOS>BOND
    1    1    2 1     
    2    1   14 1     
    3    1   15 1     
    4    2    3 ar    
    5    2    9 ar    
    6    3    4 ar    
    7    3   11 1     
    8    4    5 ar    
    9    4   12 1     
   10    5    6 1     
   11    5    8 ar    
   12    6    7 3     
   13    8    9 ar    
   14    8   13 1     
   15    9   10 1     
   16   10   16 1     
@<TRIPOS>SUBSTRUCTURE
      1 ****           1
@<TRIPOS>SET
DONOR_HYDROGENS      STATIC     ATOMS    <user>   **** ""
3 14 15 16
ATOM$RED        STATIC     ATOMS    COLORGROUP SYSTEM
3 14 15 16
@<TRIPOS>COMMENT
> <Gold.Version>
2022.2.0

> <Gold.Id.Protein>
3pbl|protein|mol2

> <Gold.Protein.RotatedTorsions>
[ 1303 1298 1297 1294 ] final   26.33 input  179.99 | X-H torsion
[ 2461 2456 2455 2452 ] final -136.23 input   30.03 | X-H torsion
[ 2515 2510 2509 2506 ] final -138.76 input  -89.99 | X-H torsion
[ 3721 3712 3711 3710 ] final  -83.74 input -179.91 | X-H torsion
[ 3841 3832 3831 3830 ] final   66.47 input -179.91 | X-H torsion
[ 3767 3762 3761 3758 ] final -129.99 input  -89.99 | X-H torsion
[ 2472 2467 2466 2463 ] final   75.94 input  -89.97 | X-H torsion

> <Gold.Protein.ActiveResidues>
 VAL82   VAL86   LEU89   PHE106  VAL107  ASP110  VAL111  MET112  CYS114  THR115 
 CYS181  SER182  ILE183  PHE188  VAL189  ILE190  SER192  SER193  SER196  TRP342 
 PHE345  PHE346  HIS349  VAL350  TYR365  THR369  GLY372  TYR373 

> <Gold.Protein.RotatedAtoms>
    3.5928  -10.1520    4.2994 H   0  0  0  0  0  0  0  0  0  0  0  0  # atno 1303 bound_to 1298
    0.7767   -9.2575    8.2064 H   0  0  0  0  0  0  0  0  0  0  0  0  # atno 2461 bound_to 2456
   -4.8971   -4.8634    7.7028 H   0  0  0  0  0  0  0  0  0  0  0  0  # atno 2472 bound_to 2467
    2.6069   -9.2573    5.2837 H   0  0  0  0  0  0  0  0  0  0  0  0  # atno 2515 bound_to 2510
   -2.9787  -17.0246   14.7182 H   0  0  0  0  0  0  0  0  0  0  0  0  # atno 3721 bound_to 3712
   -4.7095  -22.0256   11.5850 H   0  0  0  0  0  0  0  0  0  0  0  0  # atno 3767 bound_to 3762
    2.5575  -20.9545    9.4691 H   0  0  0  0  0  0  0  0  0  0  0  0  # atno 3841 bound_to 3832
    3.8743   -8.5964    3.8907 LP  0  0  0  0  0  0  0  0  0  0  0  0  # atno 4297 bound_to 1298
    4.8953   -9.3726    4.9015 LP  0  0  0  0  0  0  0  0  0  0  0  0  # atno 4298 bound_to 1298
    2.1611   -8.4527    7.8856 LP  0  0  0  0  0  0  0  0  0  0  0  0  # atno 4299 bound_to 2456
    0.7998   -8.0982    7.0563 LP  0  0  0  0  0  0  0  0  0  0  0  0  # atno 4300 bound_to 2456
    2.0297   -7.8825    5.9489 LP  0  0  0  0  0  0  0  0  0  0  0  0  # atno 4301 bound_to 2510
    2.6600   -7.8589    4.4426 LP  0  0  0  0  0  0  0  0  0  0  0  0  # atno 4302 bound_to 2510
   -3.4479  -16.8693   13.1906 LP  0  0  0  0  0  0  0  0  0  0  0  0  # atno 4306 bound_to 3712
   -2.6408  -18.2018   13.6800 LP  0  0  0  0  0  0  0  0  0  0  0  0  # atno 4307 bound_to 3712
    1.4231  -19.9427    8.9539 LP  0  0  0  0  0  0  0  0  0  0  0  0  # atno 4314 bound_to 3832
    2.8519  -20.0569    8.1715 LP  0  0  0  0  0  0  0  0  0  0  0  0  # atno 4315 bound_to 3832
   -4.0143  -23.2557   10.7661 LP  0  0  0  0  0  0  0  0  0  0  0  0  # atno 4318 bound_to 3762
   -5.4036  -22.5935   10.2202 LP  0  0  0  0  0  0  0  0  0  0  0  0  # atno 4319 bound_to 3762
   -3.6481   -5.0950    8.7287 LP  0  0  0  0  0  0  0  0  0  0  0  0  # atno 4320 bound_to 2467
   -5.1718   -5.4351    9.2075 LP  0  0  0  0  0  0  0  0  0  0  0  0  # atno 4321 bound_to 2467

> <Gold.Score>
     Score     S(PLP)   S(hbond)     S(cho)   S(metal)  DE(clash)   DE(tors)     intcor
     35.37     -29.25       2.04       0.00       0.00       0.00       0.00       0.00

> <Gold.PLP.Fitness>
35.3710

> <Gold.PLP.PLP>
-29.2494

> <Gold.PLP.part.hbond>
-3.6081

> <Gold.PLP.part.metal>
0.0000

> <Gold.PLP.part.buried>
-0.8483

> <Gold.PLP.part.nonpolar>
-26.6707

> <Gold.PLP.part.repulsive>
1.2714

> <Gold.PLP.ligand.clash>
0.0000

> <Gold.PLP.ligand.torsion>
0.0000

> <Gold.PLP.Chemscore.Hbond>
2.0405

> <Gold.PLP.Chemscore.CHOScore>
0.0000

> <Gold.PLP.Chemscore.Metal>
0.0000

> <Gold.Chemscore.Hbonds>
donor molecule, donor type, donor heavy atom, donor atom, acceptor molecule, acceptor atom, score
      L1  H    10    16       P1  1227  0.48
      P1  H  1298  1303       L1     7  1.00
      P1  H  2510  2515       L1     7  0.56

> <Gold.PLP.Chemscore.Internal.Correction>
0.0000

