#       Name:                EN300-303374_i001
#       Creating user name   fsindt
#       Creation time:       Wed Mar  1 03:33:31 2023


#       File generated by GOLD software.
#

@<TRIPOS>MOLECULE
EN300-303374_i001|amine_1|mol2|7788|dock19
    16    16     1
SMALL
USER_CHARGES


@<TRIPOS>ATOM
      1 N1           0.5693 -16.4998   7.9569 N.pl3          1 <1>                0.0000
      2 C2           0.2952 -15.2340   8.4737 C.ar           1 <1>                0.0000
      3 C3          -0.1100 -14.2112   7.6247 C.ar           1 <1>                0.0000
      4 C4          -0.3821 -12.9588   8.1309 C.ar           1 <1>                0.0000
      5 C5          -0.2507 -12.7149   9.5005 C.ar           1 <1>                0.0000
      6 C6          -0.5337 -11.4140  10.0278 C.1            1 <1>                0.0000
      7 N7          -0.7581 -10.3820  10.4462 N.1            1 <1>                0.0000
      8 C8           0.1571 -13.7440  10.3555 C.ar           1 <1>                0.0000
      9 C9           0.4227 -14.9980   9.8438 C.ar           1 <1>                0.0000
     10 O10          0.8190 -16.0010  10.6727 O.3            1 <1>                0.0000
     11 H11         -0.2116 -14.3982   6.5659 H              1 <1>                0.0000
     12 H12         -0.6965 -12.1655   7.4690 H              1 <1>                0.0000
     13 H13          0.2599 -13.5588  11.4145 H              1 <1>                0.0000
     14 H14          0.4771 -16.6658   7.0057 H              1 <1>                0.0000
     15 H15          0.8562 -17.2132   8.5482 H              1 <1>                0.0000
     16 H16          1.5680 -16.5138  10.3394 H              1 <1>                0.0000
@<TRIPOS>BOND
    1    1    2 1     
    2    1   14 1     
    3    1   15 1     
    4    2    3 ar    
    5    2    9 ar    
    6    3    4 ar    
    7    3   11 1     
    8    4    5 ar    
    9    4   12 1     
   10    5    6 1     
   11    5    8 ar    
   12    6    7 3     
   13    8    9 ar    
   14    8   13 1     
   15    9   10 1     
   16   10   16 1     
@<TRIPOS>SUBSTRUCTURE
      1 ****           1
@<TRIPOS>SET
DONOR_HYDROGENS      STATIC     ATOMS    <user>   **** ""
3 14 15 16
ATOM$RED        STATIC     ATOMS    COLORGROUP SYSTEM
3 14 15 16
@<TRIPOS>COMMENT
> <Gold.Version>
2022.2.0

> <Gold.Id.Protein>
3pbl|protein|mol2

> <Gold.Protein.RotatedTorsions>
[ 1303 1298 1297 1294 ] final   37.93 input  179.99 | X-H torsion
[ 2461 2456 2455 2452 ] final  -12.20 input   30.03 | X-H torsion
[ 2515 2510 2509 2506 ] final  151.46 input  -89.99 | X-H torsion
[ 3721 3712 3711 3710 ] final -128.68 input -179.91 | X-H torsion
[ 3841 3832 3831 3830 ] final   -5.51 input -179.91 | X-H torsion
[ 3767 3762 3761 3758 ] final  112.06 input  -89.99 | X-H torsion
[ 2472 2467 2466 2463 ] final  128.14 input  -89.97 | X-H torsion

> <Gold.Protein.ActiveResidues>
 VAL82   VAL86   LEU89   PHE106  VAL107  ASP110  VAL111  MET112  CYS114  THR115 
 CYS181  SER182  ILE183  PHE188  VAL189  ILE190  SER192  SER193  SER196  TRP342 
 PHE345  PHE346  HIS349  VAL350  TYR365  THR369  GLY372  TYR373 

> <Gold.Protein.RotatedAtoms>
    3.7221  -10.2262    4.4181 H   0  0  0  0  0  0  0  0  0  0  0  0  # atno 1303 bound_to 1298
    0.8571   -8.0665    7.0447 H   0  0  0  0  0  0  0  0  0  0  0  0  # atno 2461 bound_to 2456
   -5.4665   -5.1224    8.2477 H   0  0  0  0  0  0  0  0  0  0  0  0  # atno 2472 bound_to 2467
    2.1513   -8.6651    6.0611 H   0  0  0  0  0  0  0  0  0  0  0  0  # atno 2515 bound_to 2510
   -3.2593  -16.6006   14.2942 H   0  0  0  0  0  0  0  0  0  0  0  0  # atno 3721 bound_to 3712
   -3.9999  -23.2432   10.7939 H   0  0  0  0  0  0  0  0  0  0  0  0  # atno 3767 bound_to 3762
    1.6920  -20.4230    9.5291 H   0  0  0  0  0  0  0  0  0  0  0  0  # atno 3841 bound_to 3832
    3.7281   -8.7028    3.8304 LP  0  0  0  0  0  0  0  0  0  0  0  0  # atno 4297 bound_to 1298
    4.9121   -9.1920    4.8431 LP  0  0  0  0  0  0  0  0  0  0  0  0  # atno 4298 bound_to 1298
    0.7227   -9.2413    8.1713 LP  0  0  0  0  0  0  0  0  0  0  0  0  # atno 4299 bound_to 2456
    2.1579   -8.5002    7.9319 LP  0  0  0  0  0  0  0  0  0  0  0  0  # atno 4300 bound_to 2456
    2.3220   -7.4196    5.0194 LP  0  0  0  0  0  0  0  0  0  0  0  0  # atno 4301 bound_to 2510
    2.8236   -8.9143    4.5943 LP  0  0  0  0  0  0  0  0  0  0  0  0  # atno 4302 bound_to 2510
   -3.1185  -17.4802   12.9584 LP  0  0  0  0  0  0  0  0  0  0  0  0  # atno 4306 bound_to 3712
   -2.6462  -18.0805   14.4017 LP  0  0  0  0  0  0  0  0  0  0  0  0  # atno 4307 bound_to 3712
    2.2279  -19.6737    8.2148 LP  0  0  0  0  0  0  0  0  0  0  0  0  # atno 4314 bound_to 3832
    3.0469  -20.9399    8.8413 LP  0  0  0  0  0  0  0  0  0  0  0  0  # atno 4315 bound_to 3832
   -5.3887  -22.6191   10.2036 LP  0  0  0  0  0  0  0  0  0  0  0  0  # atno 4318 bound_to 3762
   -4.7385  -22.0130   11.5735 LP  0  0  0  0  0  0  0  0  0  0  0  0  # atno 4319 bound_to 3762
   -3.8807   -4.8478    7.9718 LP  0  0  0  0  0  0  0  0  0  0  0  0  # atno 4320 bound_to 2467
   -4.3699   -5.4233    9.4196 LP  0  0  0  0  0  0  0  0  0  0  0  0  # atno 4321 bound_to 2467

> <Gold.Score>
     Score     S(PLP)   S(hbond)     S(cho)   S(metal)  DE(clash)   DE(tors)     intcor
     31.32     -26.54       1.59       0.00       0.00       0.00       0.00       0.00

> <Gold.PLP.Fitness>
31.3156

> <Gold.PLP.PLP>
-26.5372

> <Gold.PLP.part.hbond>
-2.0000

> <Gold.PLP.part.metal>
0.0000

> <Gold.PLP.part.buried>
-3.5302

> <Gold.PLP.part.nonpolar>
-22.1256

> <Gold.PLP.part.repulsive>
0.0359

> <Gold.PLP.ligand.clash>
0.0000

> <Gold.PLP.ligand.torsion>
0.0000

> <Gold.PLP.Chemscore.Hbond>
1.5928

> <Gold.PLP.Chemscore.CHOScore>
0.0000

> <Gold.PLP.Chemscore.Metal>
0.0000

> <Gold.Chemscore.Hbonds>
donor molecule, donor type, donor heavy atom, donor atom, acceptor molecule, acceptor atom, score
      L1  H     1    15       P1  1227  0.59
      L1  H    10    16       P1  1227  1.00

> <Gold.PLP.Chemscore.Internal.Correction>
0.0000

