#       Name:                EN300-303374_i001
#       Creating user name   fsindt
#       Creation time:       Wed Mar  1 03:33:27 2023


#       File generated by GOLD software.
#

@<TRIPOS>MOLECULE
EN300-303374_i001|amine_1|mol2|7788|dock11
    16    16     1
SMALL
USER_CHARGES


@<TRIPOS>ATOM
      1 N1           1.2032 -13.4706   9.6095 N.pl3          1 <1>                0.0000
      2 C2           0.0690 -12.6692   9.7349 C.ar           1 <1>                0.0000
      3 C3          -0.8531 -12.9253  10.7424 C.ar           1 <1>                0.0000
      4 C4          -1.9754 -12.1359  10.8701 C.ar           1 <1>                0.0000
      5 C5          -2.1882 -11.0754   9.9856 C.ar           1 <1>                0.0000
      6 C6          -3.3538 -10.2541  10.1176 C.1            1 <1>                0.0000
      7 N7          -4.2786  -9.6026  10.2222 N.1            1 <1>                0.0000
      8 C8          -1.2605 -10.8172   8.9713 C.ar           1 <1>                0.0000
      9 C9          -0.1352 -11.6075   8.8516 C.ar           1 <1>                0.0000
     10 O10          0.7692 -11.3586   7.8666 O.3            1 <1>                0.0000
     11 H11         -0.6901 -13.7449  11.4266 H              1 <1>                0.0000
     12 H12         -2.6908 -12.3372  11.6538 H              1 <1>                0.0000
     13 H13         -1.4221  -9.9984   8.2857 H              1 <1>                0.0000
     14 H14          1.3480 -14.2060  10.2253 H              1 <1>                0.0000
     15 H15          1.8453 -13.2951   8.9040 H              1 <1>                0.0000
     16 H16          0.9501 -10.4191   7.7270 H              1 <1>                0.0000
@<TRIPOS>BOND
    1    1    2 1     
    2    1   14 1     
    3    1   15 1     
    4    2    3 ar    
    5    2    9 ar    
    6    3    4 ar    
    7    3   11 1     
    8    4    5 ar    
    9    4   12 1     
   10    5    6 1     
   11    5    8 ar    
   12    6    7 3     
   13    8    9 ar    
   14    8   13 1     
   15    9   10 1     
   16   10   16 1     
@<TRIPOS>SUBSTRUCTURE
      1 ****           1
@<TRIPOS>SET
DONOR_HYDROGENS      STATIC     ATOMS    <user>   **** ""
3 14 15 16
ATOM$RED        STATIC     ATOMS    COLORGROUP SYSTEM
3 14 15 16
@<TRIPOS>COMMENT
> <Gold.Version>
2022.2.0

> <Gold.Id.Protein>
3pbl|protein|mol2

> <Gold.Protein.RotatedTorsions>
[ 1303 1298 1297 1294 ] final   90.43 input  179.99 | X-H torsion
[ 2461 2456 2455 2452 ] final    3.65 input   30.03 | X-H torsion
[ 2515 2510 2509 2506 ] final -131.11 input  -89.99 | X-H torsion
[ 3721 3712 3711 3710 ] final -102.08 input -179.91 | X-H torsion
[ 3841 3832 3831 3830 ] final  -75.28 input -179.91 | X-H torsion
[ 3767 3762 3761 3758 ] final  178.29 input  -89.99 | X-H torsion
[ 2472 2467 2466 2463 ] final  -46.27 input  -89.97 | X-H torsion

> <Gold.Protein.ActiveResidues>
 VAL82   VAL86   LEU89   PHE106  VAL107  ASP110  VAL111  MET112  CYS114  THR115 
 CYS181  SER182  ILE183  PHE188  VAL189  ILE190  SER192  SER193  SER196  TRP342 
 PHE345  PHE346  HIS349  VAL350  TYR365  THR369  GLY372  TYR373 

> <Gold.Protein.RotatedAtoms>
    4.4202  -10.1167    4.8607 H   0  0  0  0  0  0  0  0  0  0  0  0  # atno 1303 bound_to 1298
    1.0981   -7.9700    7.0325 H   0  0  0  0  0  0  0  0  0  0  0  0  # atno 2461 bound_to 2456
   -3.6548   -5.1085    8.7620 H   0  0  0  0  0  0  0  0  0  0  0  0  # atno 2472 bound_to 2467
    2.6538   -9.2473    5.1675 H   0  0  0  0  0  0  0  0  0  0  0  0  # atno 2515 bound_to 2510
   -3.1096  -16.8153   14.5947 H   0  0  0  0  0  0  0  0  0  0  0  0  # atno 3721 bound_to 3712
   -4.0795  -22.5537   11.5553 H   0  0  0  0  0  0  0  0  0  0  0  0  # atno 3767 bound_to 3762
    1.7133  -19.6920    8.8615 H   0  0  0  0  0  0  0  0  0  0  0  0  # atno 3841 bound_to 3832
    3.3367   -9.4391    3.8442 LP  0  0  0  0  0  0  0  0  0  0  0  0  # atno 4297 bound_to 1298
    4.6051   -8.5652    4.3865 LP  0  0  0  0  0  0  0  0  0  0  0  0  # atno 4298 bound_to 1298
    0.5375   -9.1487    8.0142 LP  0  0  0  0  0  0  0  0  0  0  0  0  # atno 4299 bound_to 2456
    2.1021   -8.6892    8.1013 LP  0  0  0  0  0  0  0  0  0  0  0  0  # atno 4300 bound_to 2456
    2.0292   -7.9940    6.0071 LP  0  0  0  0  0  0  0  0  0  0  0  0  # atno 4301 bound_to 2510
    2.6137   -7.7574    4.5007 LP  0  0  0  0  0  0  0  0  0  0  0  0  # atno 4302 bound_to 2510
   -3.3298  -17.1003   13.0300 LP  0  0  0  0  0  0  0  0  0  0  0  0  # atno 4306 bound_to 3712
   -2.6078  -18.2125   13.9832 LP  0  0  0  0  0  0  0  0  0  0  0  0  # atno 4307 bound_to 3712
    3.0634  -20.3733    8.3237 LP  0  0  0  0  0  0  0  0  0  0  0  0  # atno 4314 bound_to 3832
    2.1868  -21.0848    9.5035 LP  0  0  0  0  0  0  0  0  0  0  0  0  # atno 4315 bound_to 3832
   -4.5931  -23.2730   10.1821 LP  0  0  0  0  0  0  0  0  0  0  0  0  # atno 4318 bound_to 3762
   -5.4546  -22.0484   10.8339 LP  0  0  0  0  0  0  0  0  0  0  0  0  # atno 4319 bound_to 3762
   -5.1991   -5.4297    9.1842 LP  0  0  0  0  0  0  0  0  0  0  0  0  # atno 4320 bound_to 2467
   -4.8629   -4.8553    7.6930 LP  0  0  0  0  0  0  0  0  0  0  0  0  # atno 4321 bound_to 2467

> <Gold.Score>
     Score     S(PLP)   S(hbond)     S(cho)   S(metal)  DE(clash)   DE(tors)     intcor
     35.00     -32.00       1.00       0.00       0.00       0.00       0.00       0.00

> <Gold.PLP.Fitness>
34.9957

> <Gold.PLP.PLP>
-31.9957

> <Gold.PLP.part.hbond>
-1.0000

> <Gold.PLP.part.metal>
0.0000

> <Gold.PLP.part.buried>
-4.4146

> <Gold.PLP.part.nonpolar>
-27.6283

> <Gold.PLP.part.repulsive>
0.1425

> <Gold.PLP.ligand.clash>
0.0000

> <Gold.PLP.ligand.torsion>
0.0000

> <Gold.PLP.Chemscore.Hbond>
1.0000

> <Gold.PLP.Chemscore.CHOScore>
0.0000

> <Gold.PLP.Chemscore.Metal>
0.0000

> <Gold.Chemscore.Hbonds>
donor molecule, donor type, donor heavy atom, donor atom, acceptor molecule, acceptor atom, score
      L1  H    10    16       P1  2456  1.00

> <Gold.PLP.Chemscore.Internal.Correction>
0.0000

