#       Name:                EN300-303374_i001
#       Creating user name   fsindt
#       Creation time:       Wed Mar  1 03:33:27 2023


#       File generated by GOLD software.
#

@<TRIPOS>MOLECULE
EN300-303374_i001|amine_1|mol2|7788|dock9
    16    16     1
SMALL
USER_CHARGES


@<TRIPOS>ATOM
      1 N1          -0.0999 -14.4740  10.2872 N.pl3          1 <1>                0.0000
      2 C2           0.3341 -13.7897   9.1524 C.ar           1 <1>                0.0000
      3 C3           0.8017 -14.4980   8.0521 C.ar           1 <1>                0.0000
      4 C4           1.2315 -13.8260   6.9285 C.ar           1 <1>                0.0000
      5 C5           1.1977 -12.4296   6.8936 C.ar           1 <1>                0.0000
      6 C6           1.6436 -11.7301   5.7263 C.1            1 <1>                0.0000
      7 N7           1.9974 -11.1754   4.8003 N.1            1 <1>                0.0000
      8 C8           0.7271 -11.7162   8.0007 C.ar           1 <1>                0.0000
      9 C9           0.2924 -12.3946   9.1214 C.ar           1 <1>                0.0000
     10 O10         -0.1663 -11.7037  10.1995 O.3            1 <1>                0.0000
     11 H11          0.8288 -15.5773   8.0778 H              1 <1>                0.0000
     12 H12          1.5949 -14.3787   6.0747 H              1 <1>                0.0000
     13 H13          0.6999 -10.6367   7.9772 H              1 <1>                0.0000
     14 H14         -0.0751 -15.4434  10.3082 H              1 <1>                0.0000
     15 H15         -0.4226 -13.9803  11.0573 H              1 <1>                0.0000
     16 H16         -0.2731 -12.2423  10.9954 H              1 <1>                0.0000
@<TRIPOS>BOND
    1    1    2 1     
    2    1   14 1     
    3    1   15 1     
    4    2    3 ar    
    5    2    9 ar    
    6    3    4 ar    
    7    3   11 1     
    8    4    5 ar    
    9    4   12 1     
   10    5    6 1     
   11    5    8 ar    
   12    6    7 3     
   13    8    9 ar    
   14    8   13 1     
   15    9   10 1     
   16   10   16 1     
@<TRIPOS>SUBSTRUCTURE
      1 ****           1
@<TRIPOS>SET
DONOR_HYDROGENS      STATIC     ATOMS    <user>   **** ""
3 14 15 16
ATOM$RED        STATIC     ATOMS    COLORGROUP SYSTEM
3 14 15 16
@<TRIPOS>COMMENT
> <Gold.Version>
2022.2.0

> <Gold.Id.Protein>
3pbl|protein|mol2

> <Gold.Protein.RotatedTorsions>
[ 1303 1298 1297 1294 ] final   21.48 input  179.99 | X-H torsion
[ 2461 2456 2455 2452 ] final   42.52 input   30.03 | X-H torsion
[ 2515 2510 2509 2506 ] final -137.35 input  -89.99 | X-H torsion
[ 3721 3712 3711 3710 ] final  -72.31 input -179.91 | X-H torsion
[ 3841 3832 3831 3830 ] final   22.99 input -179.91 | X-H torsion
[ 3767 3762 3761 3758 ] final  157.34 input  -89.99 | X-H torsion
[ 2472 2467 2466 2463 ] final  101.44 input  -89.97 | X-H torsion

> <Gold.Protein.ActiveResidues>
 VAL82   VAL86   LEU89   PHE106  VAL107  ASP110  VAL111  MET112  CYS114  THR115 
 CYS181  SER182  ILE183  PHE188  VAL189  ILE190  SER192  SER193  SER196  TRP342 
 PHE345  PHE346  HIS349  VAL350  TYR365  THR369  GLY372  TYR373 

> <Gold.Protein.RotatedAtoms>
    3.5449  -10.1113    4.2503 H   0  0  0  0  0  0  0  0  0  0  0  0  # atno 1303 bound_to 1298
    1.6980   -7.9436    7.2154 H   0  0  0  0  0  0  0  0  0  0  0  0  # atno 2461 bound_to 2456
   -5.2443   -4.9741    7.9040 H   0  0  0  0  0  0  0  0  0  0  0  0  # atno 2472 bound_to 2467
    2.6158   -9.2567    5.2623 H   0  0  0  0  0  0  0  0  0  0  0  0  # atno 2515 bound_to 2510
   -2.8924  -17.1698   14.7533 H   0  0  0  0  0  0  0  0  0  0  0  0  # atno 3721 bound_to 3712
   -3.9432  -22.8112   11.3746 H   0  0  0  0  0  0  0  0  0  0  0  0  # atno 3767 bound_to 3762
    1.9786  -20.7245    9.6217 H   0  0  0  0  0  0  0  0  0  0  0  0  # atno 3841 bound_to 3832
    3.9387   -8.5611    3.9218 LP  0  0  0  0  0  0  0  0  0  0  0  0  # atno 4297 bound_to 1298
    4.8788   -9.4486    4.9195 LP  0  0  0  0  0  0  0  0  0  0  0  0  # atno 4298 bound_to 1298
    0.3307   -8.7673    7.5609 LP  0  0  0  0  0  0  0  0  0  0  0  0  # atno 4299 bound_to 2456
    1.7093   -9.0971    8.3716 LP  0  0  0  0  0  0  0  0  0  0  0  0  # atno 4300 bound_to 2456
    2.0290   -7.9025    5.9606 LP  0  0  0  0  0  0  0  0  0  0  0  0  # atno 4301 bound_to 2510
    2.6518   -7.8395    4.4523 LP  0  0  0  0  0  0  0  0  0  0  0  0  # atno 4302 bound_to 2510
   -3.5036  -16.7506   13.3291 LP  0  0  0  0  0  0  0  0  0  0  0  0  # atno 4306 bound_to 3712
   -2.6848  -18.1529   13.5011 LP  0  0  0  0  0  0  0  0  0  0  0  0  # atno 4307 bound_to 3712
    1.8171  -19.6459    8.4442 LP  0  0  0  0  0  0  0  0  0  0  0  0  # atno 4314 bound_to 3832
    3.1267  -20.6195    8.5050 LP  0  0  0  0  0  0  0  0  0  0  0  0  # atno 4315 bound_to 3832
   -4.8845  -23.1257   10.0777 LP  0  0  0  0  0  0  0  0  0  0  0  0  # atno 4318 bound_to 3762
   -5.2994  -21.9382   11.1189 LP  0  0  0  0  0  0  0  0  0  0  0  0  # atno 4319 bound_to 3762
   -3.6699   -4.9562    8.3369 LP  0  0  0  0  0  0  0  0  0  0  0  0  # atno 4320 bound_to 2467
   -4.8028   -5.4632    9.3981 LP  0  0  0  0  0  0  0  0  0  0  0  0  # atno 4321 bound_to 2467

> <Gold.Score>
     Score     S(PLP)   S(hbond)     S(cho)   S(metal)  DE(clash)   DE(tors)     intcor
     35.53     -30.85       1.56       0.00       0.00       0.00       0.00       0.00

> <Gold.PLP.Fitness>
35.5312

> <Gold.PLP.PLP>
-30.8512

> <Gold.PLP.part.hbond>
-2.9022

> <Gold.PLP.part.metal>
0.0000

> <Gold.PLP.part.buried>
-0.2790

> <Gold.PLP.part.nonpolar>
-28.2104

> <Gold.PLP.part.repulsive>
0.1483

> <Gold.PLP.ligand.clash>
0.0000

> <Gold.PLP.ligand.torsion>
0.0000

> <Gold.PLP.Chemscore.Hbond>
1.5600

> <Gold.PLP.Chemscore.CHOScore>
0.0000

> <Gold.PLP.Chemscore.Metal>
0.0000

> <Gold.Chemscore.Hbonds>
donor molecule, donor type, donor heavy atom, donor atom, acceptor molecule, acceptor atom, score
      P1  H  1298  1303       L1     7  1.00
      P1  H  2510  2515       L1     7  0.56

> <Gold.PLP.Chemscore.Internal.Correction>
0.0000

