#       Name:                EN300-303374_i001
#       Creating user name   fsindt
#       Creation time:       Wed Mar  1 03:33:25 2023


#       File generated by GOLD software.
#

@<TRIPOS>MOLECULE
EN300-303374_i001|amine_1|mol2|7788|dock4
    16    16     1
SMALL
USER_CHARGES


@<TRIPOS>ATOM
      1 N1           1.0683 -16.5059   7.5096 N.pl3          1 <1>                0.0000
      2 C2           0.6524 -15.2106   7.8154 C.ar           1 <1>                0.0000
      3 C3           0.2195 -14.3638   6.8022 C.ar           1 <1>                0.0000
      4 C4          -0.1925 -13.0830   7.0998 C.ar           1 <1>                0.0000
      5 C5          -0.1756 -12.6330   8.4226 C.ar           1 <1>                0.0000
      6 C6          -0.6040 -11.3023   8.7331 C.1            1 <1>                0.0000
      7 N7          -0.9439 -10.2468   8.9796 N.1            1 <1>                0.0000
      8 C8           0.2600 -13.4848   9.4428 C.ar           1 <1>                0.0000
      9 C9           0.6661 -14.7687   9.1397 C.ar           1 <1>                0.0000
     10 O10          1.0898 -15.5997  10.1297 O.3            1 <1>                0.0000
     11 H11          0.2063 -14.7102   5.7793 H              1 <1>                0.0000
     12 H12         -0.5281 -12.4266   6.3105 H              1 <1>                0.0000
     13 H13          0.2746 -13.1401  10.4662 H              1 <1>                0.0000
     14 H14          1.0553 -16.8152   6.5903 H              1 <1>                0.0000
     15 H15          1.3746 -17.0963   8.2157 H              1 <1>                0.0000
     16 H16          1.8116 -16.1874   9.8677 H              1 <1>                0.0000
@<TRIPOS>BOND
    1    1    2 1     
    2    1   14 1     
    3    1   15 1     
    4    2    3 ar    
    5    2    9 ar    
    6    3    4 ar    
    7    3   11 1     
    8    4    5 ar    
    9    4   12 1     
   10    5    6 1     
   11    5    8 ar    
   12    6    7 3     
   13    8    9 ar    
   14    8   13 1     
   15    9   10 1     
   16   10   16 1     
@<TRIPOS>SUBSTRUCTURE
      1 ****           1
@<TRIPOS>SET
DONOR_HYDROGENS      STATIC     ATOMS    <user>   **** ""
3 14 15 16
ATOM$RED        STATIC     ATOMS    COLORGROUP SYSTEM
3 14 15 16
@<TRIPOS>COMMENT
> <Gold.Version>
2022.2.0

> <Gold.Id.Protein>
3pbl|protein|mol2

> <Gold.Protein.RotatedTorsions>
[ 1303 1298 1297 1294 ] final  -75.65 input  179.99 | X-H torsion
[ 2461 2456 2455 2452 ] final -109.95 input   30.03 | X-H torsion
[ 2515 2510 2509 2506 ] final   38.58 input  -89.99 | X-H torsion
[ 3721 3712 3711 3710 ] final  176.44 input -179.91 | X-H torsion
[ 3841 3832 3831 3830 ] final   38.60 input -179.91 | X-H torsion
[ 3767 3762 3761 3758 ] final  112.48 input  -89.99 | X-H torsion
[ 2472 2467 2466 2463 ] final   18.06 input  -89.97 | X-H torsion

> <Gold.Protein.ActiveResidues>
 VAL82   VAL86   LEU89   PHE106  VAL107  ASP110  VAL111  MET112  CYS114  THR115 
 CYS181  SER182  ILE183  PHE188  VAL189  ILE190  SER192  SER193  SER196  TRP342 
 PHE345  PHE346  HIS349  VAL350  TYR365  THR369  GLY372  TYR373 

> <Gold.Protein.RotatedAtoms>
    3.6535   -8.7738    3.8068 H   0  0  0  0  0  0  0  0  0  0  0  0  # atno 1303 bound_to 1298
    0.4770   -9.0991    7.9436 H   0  0  0  0  0  0  0  0  0  0  0  0  # atno 2461 bound_to 2456
   -3.9999   -4.8227    7.8637 H   0  0  0  0  0  0  0  0  0  0  0  0  # atno 2472 bound_to 2467
    2.2748   -7.4091    5.1262 H   0  0  0  0  0  0  0  0  0  0  0  0  # atno 2515 bound_to 2510
   -3.3135  -16.6295   13.4983 H   0  0  0  0  0  0  0  0  0  0  0  0  # atno 3721 bound_to 3712
   -3.9972  -23.2407   10.7997 H   0  0  0  0  0  0  0  0  0  0  0  0  # atno 3767 bound_to 3762
    2.1790  -20.8466    9.6069 H   0  0  0  0  0  0  0  0  0  0  0  0  # atno 3841 bound_to 3832
    4.9075   -9.0949    4.8022 LP  0  0  0  0  0  0  0  0  0  0  0  0  # atno 4297 bound_to 1298
    3.8013  -10.2528    4.4828 LP  0  0  0  0  0  0  0  0  0  0  0  0  # atno 4298 bound_to 1298
    2.0606   -8.7646    8.1621 LP  0  0  0  0  0  0  0  0  0  0  0  0  # atno 4299 bound_to 2456
    1.1999   -7.9446    7.0425 LP  0  0  0  0  0  0  0  0  0  0  0  0  # atno 4300 bound_to 2456
    2.8328   -8.8207    4.5246 LP  0  0  0  0  0  0  0  0  0  0  0  0  # atno 4301 bound_to 2510
    2.1891   -8.7698    6.0245 LP  0  0  0  0  0  0  0  0  0  0  0  0  # atno 4302 bound_to 2510
   -2.7133  -18.1164   13.4162 LP  0  0  0  0  0  0  0  0  0  0  0  0  # atno 4306 bound_to 3712
   -2.9889  -17.4108   14.8629 LP  0  0  0  0  0  0  0  0  0  0  0  0  # atno 4307 bound_to 3712
    1.6319  -19.7091    8.6154 LP  0  0  0  0  0  0  0  0  0  0  0  0  # atno 4314 bound_to 3832
    3.0804  -20.4152    8.3508 LP  0  0  0  0  0  0  0  0  0  0  0  0  # atno 4315 bound_to 3832
   -5.3856  -22.6243   10.2004 LP  0  0  0  0  0  0  0  0  0  0  0  0  # atno 4318 bound_to 3762
   -4.7444  -22.0104   11.5710 LP  0  0  0  0  0  0  0  0  0  0  0  0  # atno 4319 bound_to 3762
   -4.2151   -5.3917    9.3790 LP  0  0  0  0  0  0  0  0  0  0  0  0  # atno 4320 bound_to 2467
   -5.5018   -5.1791    8.3963 LP  0  0  0  0  0  0  0  0  0  0  0  0  # atno 4321 bound_to 2467

> <Gold.Score>
     Score     S(PLP)   S(hbond)     S(cho)   S(metal)  DE(clash)   DE(tors)     intcor
     36.85     -27.90       2.98       0.00       0.00       0.00       0.00       0.00

> <Gold.PLP.Fitness>
36.8487

> <Gold.PLP.PLP>
-27.8967

> <Gold.PLP.part.hbond>
-3.3282

> <Gold.PLP.part.metal>
0.0000

> <Gold.PLP.part.buried>
-2.3699

> <Gold.PLP.part.nonpolar>
-23.4014

> <Gold.PLP.part.repulsive>
0.0438

> <Gold.PLP.ligand.clash>
0.0000

> <Gold.PLP.ligand.torsion>
0.0000

> <Gold.PLP.Chemscore.Hbond>
2.9840

> <Gold.PLP.Chemscore.CHOScore>
0.0000

> <Gold.PLP.Chemscore.Metal>
0.0000

> <Gold.Chemscore.Hbonds>
donor molecule, donor type, donor heavy atom, donor atom, acceptor molecule, acceptor atom, score
      L1  H     1    15       P1  1227  0.99
      L1  H    10    16       P1  1227  1.00
      P1  H  2456  2461       L1     7  0.99

> <Gold.PLP.Chemscore.Internal.Correction>
0.0000

