#       Name:                EN300-303374_i001
#       Creating user name   fsindt
#       Creation time:       Wed Mar  1 03:33:27 2023


#       File generated by GOLD software.
#

@<TRIPOS>MOLECULE
EN300-303374_i001|amine_1|mol2|7788|dock8
    16    16     1
SMALL
USER_CHARGES


@<TRIPOS>ATOM
      1 N1           0.8959 -16.0262  10.7275 N.pl3          1 <1>                0.0000
      2 C2           0.4488 -14.7743  10.3063 C.ar           1 <1>                0.0000
      3 C3          -0.4008 -14.0323  11.1179 C.ar           1 <1>                0.0000
      4 C4          -0.8450 -12.7947  10.7057 C.ar           1 <1>                0.0000
      5 C5          -0.4414 -12.2833   9.4696 C.ar           1 <1>                0.0000
      6 C6          -0.9019 -10.9970   9.0405 C.1            1 <1>                0.0000
      7 N7          -1.2674  -9.9768   8.7000 N.1            1 <1>                0.0000
      8 C8           0.4137 -13.0297   8.6524 C.ar           1 <1>                0.0000
      9 C9           0.8602 -14.2662   9.0728 C.ar           1 <1>                0.0000
     10 O10          1.6923 -14.9944   8.2805 O.3            1 <1>                0.0000
     11 H11         -0.7138 -14.4265  12.0733 H              1 <1>                0.0000
     12 H12         -1.5056 -12.2200  11.3380 H              1 <1>                0.0000
     13 H13          0.7274 -12.6375   7.6962 H              1 <1>                0.0000
     14 H14          0.6138 -16.3783  11.5862 H              1 <1>                0.0000
     15 H15          1.4857 -16.5466  10.1599 H              1 <1>                0.0000
     16 H16          2.0451 -15.7881   8.7054 H              1 <1>                0.0000
@<TRIPOS>BOND
    1    1    2 1     
    2    1   14 1     
    3    1   15 1     
    4    2    3 ar    
    5    2    9 ar    
    6    3    4 ar    
    7    3   11 1     
    8    4    5 ar    
    9    4   12 1     
   10    5    6 1     
   11    5    8 ar    
   12    6    7 3     
   13    8    9 ar    
   14    8   13 1     
   15    9   10 1     
   16   10   16 1     
@<TRIPOS>SUBSTRUCTURE
      1 ****           1
@<TRIPOS>SET
DONOR_HYDROGENS      STATIC     ATOMS    <user>   **** ""
3 14 15 16
ATOM$RED        STATIC     ATOMS    COLORGROUP SYSTEM
3 14 15 16
@<TRIPOS>COMMENT
> <Gold.Version>
2022.2.0

> <Gold.Id.Protein>
3pbl|protein|mol2

> <Gold.Protein.RotatedTorsions>
[ 1303 1298 1297 1294 ] final   49.56 input  179.99 | X-H torsion
[ 2461 2456 2455 2452 ] final -111.88 input   30.03 | X-H torsion
[ 2515 2510 2509 2506 ] final  -72.09 input  -89.99 | X-H torsion
[ 3721 3712 3711 3710 ] final -122.42 input -179.91 | X-H torsion
[ 3841 3832 3831 3830 ] final  108.03 input -179.91 | X-H torsion
[ 3767 3762 3761 3758 ] final   45.65 input  -89.99 | X-H torsion
[ 2472 2467 2466 2463 ] final  171.48 input  -89.97 | X-H torsion

> <Gold.Protein.ActiveResidues>
 VAL82   VAL86   LEU89   PHE106  VAL107  ASP110  VAL111  MET112  CYS114  THR115 
 CYS181  SER182  ILE183  PHE188  VAL189  ILE190  SER192  SER193  SER196  TRP342 
 PHE345  PHE346  HIS349  VAL350  TYR365  THR369  GLY372  TYR373 

> <Gold.Protein.RotatedAtoms>
    3.8680  -10.2657    4.5348 H   0  0  0  0  0  0  0  0  0  0  0  0  # atno 1303 bound_to 1298
    0.4942   -9.1148    7.9652 H   0  0  0  0  0  0  0  0  0  0  0  0  # atno 2461 bound_to 2456
   -5.4165   -5.3530    8.9028 H   0  0  0  0  0  0  0  0  0  0  0  0  # atno 2472 bound_to 2467
    2.8355   -8.6866    4.4501 H   0  0  0  0  0  0  0  0  0  0  0  0  # atno 2515 bound_to 2510
   -3.2299  -16.6393   14.3753 H   0  0  0  0  0  0  0  0  0  0  0  0  # atno 3721 bound_to 3712
   -4.7692  -23.1930   10.1067 H   0  0  0  0  0  0  0  0  0  0  0  0  # atno 3767 bound_to 3762
    3.0070  -20.8220    9.0721 H   0  0  0  0  0  0  0  0  0  0  0  0  # atno 3841 bound_to 3832
    3.5977   -8.8369    3.7919 LP  0  0  0  0  0  0  0  0  0  0  0  0  # atno 4297 bound_to 1298
    4.8965   -9.0184    4.7649 LP  0  0  0  0  0  0  0  0  0  0  0  0  # atno 4298 bound_to 1298
    2.0742   -8.7420    8.1443 LP  0  0  0  0  0  0  0  0  0  0  0  0  # atno 4299 bound_to 2456
    1.1691   -7.9515    7.0386 LP  0  0  0  0  0  0  0  0  0  0  0  0  # atno 4300 bound_to 2456
    2.2446   -8.8961    5.9576 LP  0  0  0  0  0  0  0  0  0  0  0  0  # atno 4301 bound_to 2510
    2.2164   -7.4162    5.2679 LP  0  0  0  0  0  0  0  0  0  0  0  0  # atno 4302 bound_to 2510
   -3.1706  -17.3895   12.9570 LP  0  0  0  0  0  0  0  0  0  0  0  0  # atno 4306 bound_to 3712
   -2.6281  -18.1264   14.3096 LP  0  0  0  0  0  0  0  0  0  0  0  0  # atno 4307 bound_to 3712
    1.4748  -20.4629    9.3876 LP  0  0  0  0  0  0  0  0  0  0  0  0  # atno 4314 bound_to 3832
    2.2809  -19.6898    8.1963 LP  0  0  0  0  0  0  0  0  0  0  0  0  # atno 4315 bound_to 3832
   -5.3718  -21.9716   11.0078 LP  0  0  0  0  0  0  0  0  0  0  0  0  # atno 4318 bound_to 3762
   -3.9864  -22.7107   11.4563 LP  0  0  0  0  0  0  0  0  0  0  0  0  # atno 4319 bound_to 3762
   -4.5039   -4.8055    7.6643 LP  0  0  0  0  0  0  0  0  0  0  0  0  # atno 4320 bound_to 2467
   -3.7967   -5.2351    9.0721 LP  0  0  0  0  0  0  0  0  0  0  0  0  # atno 4321 bound_to 2467

> <Gold.Score>
     Score     S(PLP)   S(hbond)     S(cho)   S(metal)  DE(clash)   DE(tors)     intcor
     35.97     -26.97       3.00       0.00       0.00       0.00       0.00       0.00

> <Gold.PLP.Fitness>
35.9726

> <Gold.PLP.PLP>
-26.9726

> <Gold.PLP.part.hbond>
-3.1281

> <Gold.PLP.part.metal>
0.0000

> <Gold.PLP.part.buried>
-1.8374

> <Gold.PLP.part.nonpolar>
-22.4593

> <Gold.PLP.part.repulsive>
0.0716

> <Gold.PLP.ligand.clash>
0.0000

> <Gold.PLP.ligand.torsion>
0.0000

> <Gold.PLP.Chemscore.Hbond>
3.0000

> <Gold.PLP.Chemscore.CHOScore>
0.0000

> <Gold.PLP.Chemscore.Metal>
0.0000

> <Gold.Chemscore.Hbonds>
donor molecule, donor type, donor heavy atom, donor atom, acceptor molecule, acceptor atom, score
      L1  H     1    15       P1  1227  1.00
      L1  H    10    16       P1  1227  1.00
      P1  H  2456  2461       L1     7  1.00

> <Gold.PLP.Chemscore.Internal.Correction>
0.0000

