#       Name:                EN300-303374_i001
#       Creating user name   fsindt
#       Creation time:       Wed Mar  1 03:33:28 2023


#       File generated by GOLD software.
#

@<TRIPOS>MOLECULE
EN300-303374_i001|amine_1|mol2|7788|dock14
    16    16     1
SMALL
USER_CHARGES


@<TRIPOS>ATOM
      1 N1           1.0270 -10.9105   7.2626 N.pl3          1 <1>                0.0000
      2 C2           0.6902 -12.2303   7.5613 C.ar           1 <1>                0.0000
      3 C3           0.8098 -13.2139   6.5870 C.ar           1 <1>                0.0000
      4 C4           0.4782 -14.5195   6.8777 C.ar           1 <1>                0.0000
      5 C5           0.0207 -14.8568   8.1541 C.ar           1 <1>                0.0000
      6 C6          -0.3237 -16.2132   8.4575 C.1            1 <1>                0.0000
      7 N7          -0.5969 -17.2893   8.6981 N.1            1 <1>                0.0000
      8 C8          -0.0998 -13.8672   9.1351 C.ar           1 <1>                0.0000
      9 C9           0.2392 -12.5621   8.8402 C.ar           1 <1>                0.0000
     10 O10          0.1236 -11.5975   9.7922 O.3            1 <1>                0.0000
     11 H11          1.1629 -12.9546   5.5999 H              1 <1>                0.0000
     12 H12          0.5716 -15.2821   6.1187 H              1 <1>                0.0000
     13 H13         -0.4534 -14.1244  10.1227 H              1 <1>                0.0000
     14 H14          1.3443 -10.6798   6.3755 H              1 <1>                0.0000
     15 H15          0.9400 -10.2226   7.9409 H              1 <1>                0.0000
     16 H16          0.8952 -11.5205  10.3698 H              1 <1>                0.0000
@<TRIPOS>BOND
    1    1    2 1     
    2    1   14 1     
    3    1   15 1     
    4    2    3 ar    
    5    2    9 ar    
    6    3    4 ar    
    7    3   11 1     
    8    4    5 ar    
    9    4   12 1     
   10    5    6 1     
   11    5    8 ar    
   12    6    7 3     
   13    8    9 ar    
   14    8   13 1     
   15    9   10 1     
   16   10   16 1     
@<TRIPOS>SUBSTRUCTURE
      1 ****           1
@<TRIPOS>SET
DONOR_HYDROGENS      STATIC     ATOMS    <user>   **** ""
3 14 15 16
ATOM$RED        STATIC     ATOMS    COLORGROUP SYSTEM
3 14 15 16
@<TRIPOS>COMMENT
> <Gold.Version>
2022.2.0

> <Gold.Id.Protein>
3pbl|protein|mol2

> <Gold.Protein.RotatedTorsions>
[ 1303 1298 1297 1294 ] final  161.56 input  179.99 | X-H torsion
[ 2461 2456 2455 2452 ] final   91.73 input   30.03 | X-H torsion
[ 2515 2510 2509 2506 ] final -152.04 input  -89.99 | X-H torsion
[ 3721 3712 3711 3710 ] final -156.29 input -179.91 | X-H torsion
[ 3841 3832 3831 3830 ] final  151.64 input -179.91 | X-H torsion
[ 3767 3762 3761 3758 ] final  115.02 input  -89.99 | X-H torsion
[ 2472 2467 2466 2463 ] final -156.41 input  -89.97 | X-H torsion

> <Gold.Protein.ActiveResidues>
 VAL82   VAL86   LEU89   PHE106  VAL107  ASP110  VAL111  MET112  CYS114  THR115 
 CYS181  SER182  ILE183  PHE188  VAL189  ILE190  SER192  SER193  SER196  TRP342 
 PHE345  PHE346  HIS349  VAL350  TYR365  THR369  GLY372  TYR373 

> <Gold.Protein.RotatedAtoms>
    4.9103   -9.1367    4.8210 H   0  0  0  0  0  0  0  0  0  0  0  0  # atno 1303 bound_to 1298
    2.1440   -8.3163    7.7435 H   0  0  0  0  0  0  0  0  0  0  0  0  # atno 2461 bound_to 2456
   -5.0703   -5.4510    9.2803 H   0  0  0  0  0  0  0  0  0  0  0  0  # atno 2472 bound_to 2467
    2.5187   -9.2357    5.4819 H   0  0  0  0  0  0  0  0  0  0  0  0  # atno 2515 bound_to 2510
   -3.3350  -16.5306   13.8939 H   0  0  0  0  0  0  0  0  0  0  0  0  # atno 3721 bound_to 3712
   -3.9815  -23.2244   10.8347 H   0  0  0  0  0  0  0  0  0  0  0  0  # atno 3767 bound_to 3762
    3.1197  -20.3866    8.6125 H   0  0  0  0  0  0  0  0  0  0  0  0  # atno 3841 bound_to 3832
    3.7662  -10.2427    4.4545 LP  0  0  0  0  0  0  0  0  0  0  0  0  # atno 4297 bound_to 1298
    3.6854   -8.7420    3.8159 LP  0  0  0  0  0  0  0  0  0  0  0  0  # atno 4298 bound_to 1298
    0.6430   -8.2061    7.1094 LP  0  0  0  0  0  0  0  0  0  0  0  0  # atno 4299 bound_to 2456
    0.9510   -9.2856    8.2953 LP  0  0  0  0  0  0  0  0  0  0  0  0  # atno 4300 bound_to 2456
    2.0475   -7.7090    5.8180 LP  0  0  0  0  0  0  0  0  0  0  0  0  # atno 4301 bound_to 2510
    2.7305   -8.0540    4.3753 LP  0  0  0  0  0  0  0  0  0  0  0  0  # atno 4302 bound_to 2510
   -2.8929  -17.8525   13.0971 LP  0  0  0  0  0  0  0  0  0  0  0  0  # atno 4306 bound_to 3712
   -2.7844  -17.7890   14.7252 LP  0  0  0  0  0  0  0  0  0  0  0  0  # atno 4307 bound_to 3712
    1.9502  -20.9679    9.5454 LP  0  0  0  0  0  0  0  0  0  0  0  0  # atno 4314 bound_to 3832
    1.6754  -19.6878    8.5694 LP  0  0  0  0  0  0  0  0  0  0  0  0  # atno 4315 bound_to 3832
   -5.3659  -22.6557   10.1813 LP  0  0  0  0  0  0  0  0  0  0  0  0  # atno 4318 bound_to 3762
   -4.7797  -21.9952   11.5550 LP  0  0  0  0  0  0  0  0  0  0  0  0  # atno 4319 bound_to 3762
   -5.0115   -4.8913    7.7474 LP  0  0  0  0  0  0  0  0  0  0  0  0  # atno 4320 bound_to 2467
   -3.6352   -5.0513    8.6116 LP  0  0  0  0  0  0  0  0  0  0  0  0  # atno 4321 bound_to 2467

> <Gold.Score>
     Score     S(PLP)   S(hbond)     S(cho)   S(metal)  DE(clash)   DE(tors)     intcor
     32.90     -30.84       0.69       0.00       0.00       0.00       0.00       0.00

> <Gold.PLP.Fitness>
32.9029

> <Gold.PLP.PLP>
-30.8389

> <Gold.PLP.part.hbond>
-1.0000

> <Gold.PLP.part.metal>
0.0000

> <Gold.PLP.part.buried>
-4.4238

> <Gold.PLP.part.nonpolar>
-25.8306

> <Gold.PLP.part.repulsive>
0.1156

> <Gold.PLP.ligand.clash>
0.0000

> <Gold.PLP.ligand.torsion>
0.0000

> <Gold.PLP.Chemscore.Hbond>
0.6880

> <Gold.PLP.Chemscore.CHOScore>
0.0000

> <Gold.PLP.Chemscore.Metal>
0.0000

> <Gold.Chemscore.Hbonds>
donor molecule, donor type, donor heavy atom, donor atom, acceptor molecule, acceptor atom, score
      L1  H     1    15       P1  2456  0.69

> <Gold.PLP.Chemscore.Internal.Correction>
0.0000

