#       Name:                EN300-303374_i001
#       Creating user name   fsindt
#       Creation time:       Wed Mar  1 03:33:26 2023


#       File generated by GOLD software.
#

@<TRIPOS>MOLECULE
EN300-303374_i001|amine_1|mol2|7788|dock6
    16    16     1
SMALL
USER_CHARGES


@<TRIPOS>ATOM
      1 N1           1.3997 -16.2325   6.9025 N.pl3          1 <1>                0.0000
      2 C2           1.1123 -15.0240   7.5360 C.ar           1 <1>                0.0000
      3 C3           1.4004 -13.8222   6.9006 C.ar           1 <1>                0.0000
      4 C4           1.1180 -12.6256   7.5228 C.ar           1 <1>                0.0000
      5 C5           0.5408 -12.6186   8.7952 C.ar           1 <1>                0.0000
      6 C6           0.2464 -11.3757   9.4426 C.1            1 <1>                0.0000
      7 N7           0.0127 -10.3897   9.9561 N.1            1 <1>                0.0000
      8 C8           0.2506 -13.8279   9.4353 C.ar           1 <1>                0.0000
      9 C9           0.5302 -15.0235   8.8050 C.ar           1 <1>                0.0000
     10 O10          0.2488 -16.2013   9.4246 O.3            1 <1>                0.0000
     11 H11          1.8469 -13.8261   5.9172 H              1 <1>                0.0000
     12 H12          1.3432 -11.6929   7.0270 H              1 <1>                0.0000
     13 H13         -0.1953 -13.8261  10.4190 H              1 <1>                0.0000
     14 H14          1.8004 -16.2338   6.0191 H              1 <1>                0.0000
     15 H15          1.2028 -17.0718   7.3470 H              1 <1>                0.0000
     16 H16          1.0226 -16.7612   9.5751 H              1 <1>                0.0000
@<TRIPOS>BOND
    1    1    2 1     
    2    1   14 1     
    3    1   15 1     
    4    2    3 ar    
    5    2    9 ar    
    6    3    4 ar    
    7    3   11 1     
    8    4    5 ar    
    9    4   12 1     
   10    5    6 1     
   11    5    8 ar    
   12    6    7 3     
   13    8    9 ar    
   14    8   13 1     
   15    9   10 1     
   16   10   16 1     
@<TRIPOS>SUBSTRUCTURE
      1 ****           1
@<TRIPOS>SET
DONOR_HYDROGENS      STATIC     ATOMS    <user>   **** ""
3 14 15 16
ATOM$RED        STATIC     ATOMS    COLORGROUP SYSTEM
3 14 15 16
@<TRIPOS>COMMENT
> <Gold.Version>
2022.2.0

> <Gold.Id.Protein>
3pbl|protein|mol2

> <Gold.Protein.RotatedTorsions>
[ 1303 1298 1297 1294 ] final   10.50 input  179.99 | X-H torsion
[ 2461 2456 2455 2452 ] final -144.42 input   30.03 | X-H torsion
[ 2515 2510 2509 2506 ] final   85.60 input  -89.99 | X-H torsion
[ 3721 3712 3711 3710 ] final   -2.96 input -179.91 | X-H torsion
[ 3841 3832 3831 3830 ] final  -18.76 input -179.91 | X-H torsion
[ 3767 3762 3761 3758 ] final  161.53 input  -89.99 | X-H torsion
[ 2472 2467 2466 2463 ] final  121.79 input  -89.97 | X-H torsion

> <Gold.Protein.ActiveResidues>
 VAL82   VAL86   LEU89   PHE106  VAL107  ASP110  VAL111  MET112  CYS114  THR115 
 CYS181  SER182  ILE183  PHE188  VAL189  ILE190  SER192  SER193  SER196  TRP342 
 PHE345  PHE346  HIS349  VAL350  TYR365  THR369  GLY372  TYR373 

> <Gold.Protein.RotatedAtoms>
    3.4521  -10.0003    4.1427 H   0  0  0  0  0  0  0  0  0  0  0  0  # atno 1303 bound_to 1298
    0.8934   -9.2800    8.2696 H   0  0  0  0  0  0  0  0  0  0  0  0  # atno 2461 bound_to 2456
   -5.4298   -5.0857    8.1570 H   0  0  0  0  0  0  0  0  0  0  0  0  # atno 2472 bound_to 2467
    2.0532   -7.6817    5.7910 H   0  0  0  0  0  0  0  0  0  0  0  0  # atno 2515 bound_to 2510
   -2.4937  -17.9386   14.2827 H   0  0  0  0  0  0  0  0  0  0  0  0  # atno 3721 bound_to 3712
   -3.9628  -22.7606   11.4171 H   0  0  0  0  0  0  0  0  0  0  0  0  # atno 3767 bound_to 3762
    1.6100  -20.2650    9.4385 H   0  0  0  0  0  0  0  0  0  0  0  0  # atno 3841 bound_to 3832
    4.0887   -8.5031    4.0035 LP  0  0  0  0  0  0  0  0  0  0  0  0  # atno 4297 bound_to 1298
    4.8216   -9.6177    4.9454 LP  0  0  0  0  0  0  0  0  0  0  0  0  # atno 4298 bound_to 1298
    2.1537   -8.3589    7.7893 LP  0  0  0  0  0  0  0  0  0  0  0  0  # atno 4299 bound_to 2456
    0.6905   -8.1695    7.0894 LP  0  0  0  0  0  0  0  0  0  0  0  0  # atno 4300 bound_to 2456
    2.7415   -8.0906    4.3680 LP  0  0  0  0  0  0  0  0  0  0  0  0  # atno 4301 bound_to 2510
    2.5023   -9.2271    5.5159 LP  0  0  0  0  0  0  0  0  0  0  0  0  # atno 4302 bound_to 2510
   -3.4581  -16.6616   14.4139 LP  0  0  0  0  0  0  0  0  0  0  0  0  # atno 4306 bound_to 3712
   -3.1906  -17.3543   12.9595 LP  0  0  0  0  0  0  0  0  0  0  0  0  # atno 4307 bound_to 3712
    2.4278  -19.7484    8.1578 LP  0  0  0  0  0  0  0  0  0  0  0  0  # atno 4314 bound_to 3832
    2.9418  -21.0477    9.0029 LP  0  0  0  0  0  0  0  0  0  0  0  0  # atno 4315 bound_to 3832
   -4.8268  -23.1612   10.0906 LP  0  0  0  0  0  0  0  0  0  0  0  0  # atno 4318 bound_to 3762
   -5.3375  -21.9532   11.0635 LP  0  0  0  0  0  0  0  0  0  0  0  0  # atno 4319 bound_to 3762
   -3.8148   -4.8688    8.0502 LP  0  0  0  0  0  0  0  0  0  0  0  0  # atno 4320 bound_to 2467
   -4.4725   -5.4390    9.4318 LP  0  0  0  0  0  0  0  0  0  0  0  0  # atno 4321 bound_to 2467

> <Gold.Score>
     Score     S(PLP)   S(hbond)     S(cho)   S(metal)  DE(clash)   DE(tors)     intcor
     35.05     -30.94       1.37       0.00       0.00       0.00       0.00       0.00

> <Gold.PLP.Fitness>
35.0476

> <Gold.PLP.PLP>
-30.9425

> <Gold.PLP.part.hbond>
-3.3486

> <Gold.PLP.part.metal>
0.0000

> <Gold.PLP.part.buried>
-3.2398

> <Gold.PLP.part.nonpolar>
-24.8659

> <Gold.PLP.part.repulsive>
0.0288

> <Gold.PLP.ligand.clash>
0.0000

> <Gold.PLP.ligand.torsion>
0.0000

> <Gold.PLP.Chemscore.Hbond>
1.3684

> <Gold.PLP.Chemscore.CHOScore>
0.0000

> <Gold.PLP.Chemscore.Metal>
0.0000

> <Gold.Chemscore.Hbonds>
donor molecule, donor type, donor heavy atom, donor atom, acceptor molecule, acceptor atom, score
      L1  H    10    16       P1  1227  1.00
      P1  H  2456  2461       L1     7  0.37

> <Gold.PLP.Chemscore.Internal.Correction>
0.0000

