#       Name:                EN300-303374_i001
#       Creating user name   fsindt
#       Creation time:       Wed Mar  1 03:33:27 2023


#       File generated by GOLD software.
#

@<TRIPOS>MOLECULE
EN300-303374_i001|amine_1|mol2|7788|dock10
    16    16     1
SMALL
USER_CHARGES


@<TRIPOS>ATOM
      1 N1          -0.2274 -12.8804   8.4122 N.pl3          1 <1>                0.0000
      2 C2          -0.1953 -13.4905   9.6656 C.ar           1 <1>                0.0000
      3 C3          -0.8430 -12.8973  10.7424 C.ar           1 <1>                0.0000
      4 C4          -0.8140 -13.4967  11.9829 C.ar           1 <1>                0.0000
      5 C5          -0.1323 -14.7035  12.1602 C.ar           1 <1>                0.0000
      6 C6          -0.1019 -15.3276  13.4486 C.1            1 <1>                0.0000
      7 N7          -0.0777 -15.8227  14.4708 N.1            1 <1>                0.0000
      8 C8           0.5198 -15.3011  11.0767 C.ar           1 <1>                0.0000
      9 C9           0.4826 -14.6992   9.8352 C.ar           1 <1>                0.0000
     10 O10          1.1154 -15.2780   8.7794 O.3            1 <1>                0.0000
     11 H11         -1.3699 -11.9644  10.6070 H              1 <1>                0.0000
     12 H12         -1.3178 -13.0335  12.8184 H              1 <1>                0.0000
     13 H13          1.0478 -16.2337  11.2103 H              1 <1>                0.0000
     14 H14         -0.7015 -12.0427   8.2925 H              1 <1>                0.0000
     15 H15          0.2279 -13.2916   7.6609 H              1 <1>                0.0000
     16 H16          1.6712 -16.0320   9.0192 H              1 <1>                0.0000
@<TRIPOS>BOND
    1    1    2 1     
    2    1   14 1     
    3    1   15 1     
    4    2    3 ar    
    5    2    9 ar    
    6    3    4 ar    
    7    3   11 1     
    8    4    5 ar    
    9    4   12 1     
   10    5    6 1     
   11    5    8 ar    
   12    6    7 3     
   13    8    9 ar    
   14    8   13 1     
   15    9   10 1     
   16   10   16 1     
@<TRIPOS>SUBSTRUCTURE
      1 ****           1
@<TRIPOS>SET
DONOR_HYDROGENS      STATIC     ATOMS    <user>   **** ""
3 14 15 16
ATOM$RED        STATIC     ATOMS    COLORGROUP SYSTEM
3 14 15 16
@<TRIPOS>COMMENT
> <Gold.Version>
2022.2.0

> <Gold.Id.Protein>
3pbl|protein|mol2

> <Gold.Protein.RotatedTorsions>
[ 1303 1298 1297 1294 ] final  -74.01 input  179.99 | X-H torsion
[ 2461 2456 2455 2452 ] final -138.94 input   30.03 | X-H torsion
[ 2515 2510 2509 2506 ] final  145.60 input  -89.99 | X-H torsion
[ 3721 3712 3711 3710 ] final -130.87 input -179.91 | X-H torsion
[ 3841 3832 3831 3830 ] final -131.68 input -179.91 | X-H torsion
[ 3767 3762 3761 3758 ] final    5.21 input  -89.99 | X-H torsion
[ 2472 2467 2466 2463 ] final   50.30 input  -89.97 | X-H torsion

> <Gold.Protein.ActiveResidues>
 VAL82   VAL86   LEU89   PHE106  VAL107  ASP110  VAL111  MET112  CYS114  THR115 
 CYS181  SER182  ILE183  PHE188  VAL189  ILE190  SER192  SER193  SER196  TRP342 
 PHE345  PHE346  HIS349  VAL350  TYR365  THR369  GLY372  TYR373 

> <Gold.Protein.RotatedAtoms>
    3.6355   -8.7932    3.8018 H   0  0  0  0  0  0  0  0  0  0  0  0  # atno 1303 bound_to 1298
    0.8144   -9.2665    8.2285 H   0  0  0  0  0  0  0  0  0  0  0  0  # atno 2461 bound_to 2456
   -4.4845   -4.8048    7.6662 H   0  0  0  0  0  0  0  0  0  0  0  0  # atno 2472 bound_to 2467
    2.1232   -8.5753    6.0818 H   0  0  0  0  0  0  0  0  0  0  0  0  # atno 2515 bound_to 2510
   -3.2687  -16.5889   14.2646 H   0  0  0  0  0  0  0  0  0  0  0  0  # atno 3721 bound_to 3712
   -5.2737  -22.7804   10.1179 H   0  0  0  0  0  0  0  0  0  0  0  0  # atno 3767 bound_to 3762
    2.3835  -19.6353    8.3957 H   0  0  0  0  0  0  0  0  0  0  0  0  # atno 3841 bound_to 3832
    4.9048   -9.0706    4.7908 LP  0  0  0  0  0  0  0  0  0  0  0  0  # atno 4297 bound_to 1298
    3.8221  -10.2578    4.4992 LP  0  0  0  0  0  0  0  0  0  0  0  0  # atno 4298 bound_to 1298
    2.1607   -8.4212    7.8540 LP  0  0  0  0  0  0  0  0  0  0  0  0  # atno 4299 bound_to 2456
    0.7625   -8.1207    7.0658 LP  0  0  0  0  0  0  0  0  0  0  0  0  # atno 4300 bound_to 2456
    2.3622   -7.4390    4.9340 LP  0  0  0  0  0  0  0  0  0  0  0  0  # atno 4301 bound_to 2510
    2.8115   -8.9847    4.6590 LP  0  0  0  0  0  0  0  0  0  0  0  0  # atno 4302 bound_to 2510
   -3.1002  -17.5117   12.9616 LP  0  0  0  0  0  0  0  0  0  0  0  0  # atno 4306 bound_to 3712
   -2.6538  -18.0625   14.4327 LP  0  0  0  0  0  0  0  0  0  0  0  0  # atno 4307 bound_to 3712
    2.9787  -21.0177    8.9532 LP  0  0  0  0  0  0  0  0  0  0  0  0  # atno 4314 bound_to 3832
    1.4974  -20.5059    9.4121 LP  0  0  0  0  0  0  0  0  0  0  0  0  # atno 4315 bound_to 3832
   -4.9202  -21.9470   11.4771 LP  0  0  0  0  0  0  0  0  0  0  0  0  # atno 4318 bound_to 3762
   -3.9336  -23.1478   10.9758 LP  0  0  0  0  0  0  0  0  0  0  0  0  # atno 4319 bound_to 3762
   -3.8076   -5.2415    9.0866 LP  0  0  0  0  0  0  0  0  0  0  0  0  # atno 4320 bound_to 2467
   -5.4248   -5.3471    8.8861 LP  0  0  0  0  0  0  0  0  0  0  0  0  # atno 4321 bound_to 2467

> <Gold.Score>
     Score     S(PLP)   S(hbond)     S(cho)   S(metal)  DE(clash)   DE(tors)     intcor
     33.70     -27.70       2.00       0.00       0.00       0.00       0.00       0.00

> <Gold.PLP.Fitness>
33.7019

> <Gold.PLP.PLP>
-27.7019

> <Gold.PLP.part.hbond>
-2.0000

> <Gold.PLP.part.metal>
0.0000

> <Gold.PLP.part.buried>
-4.1906

> <Gold.PLP.part.nonpolar>
-22.2266

> <Gold.PLP.part.repulsive>
0.0806

> <Gold.PLP.ligand.clash>
0.0000

> <Gold.PLP.ligand.torsion>
0.0000

> <Gold.PLP.Chemscore.Hbond>
2.0000

> <Gold.PLP.Chemscore.CHOScore>
0.0000

> <Gold.PLP.Chemscore.Metal>
0.0000

> <Gold.Chemscore.Hbonds>
donor molecule, donor type, donor heavy atom, donor atom, acceptor molecule, acceptor atom, score
      L1  H    10    16       P1  1227  1.00
      P1  H  2305  2313       L1     7  1.00

> <Gold.PLP.Chemscore.Internal.Correction>
0.0000

