#       Name:                plp ligand
#       Creating user name   fsindt
#       Creation time:       Wed Mar  1 03:33:24 2023


#       File generated by GOLD software.
#

@<TRIPOS>MOLECULE
plp ligand
    16    16     1
SMALL
USER_CHARGES


@<TRIPOS>ATOM
      1 N1           2.4546   0.5769   0.0574 DONOR          1 <1>                0.0000
      2 C2           1.0773   0.3591   0.0553 NONPOLAR       1 <1>                0.0000
      3 C3           0.2043   1.4401   0.0377 NONPOLAR       1 <1>                0.0000
      4 C4          -1.1575   1.2296   0.0355 NONPOLAR       1 <1>                0.0000
      5 C5          -1.6634  -0.0728   0.0510 NONPOLAR       1 <1>                0.0000
      6 C6          -3.0784  -0.2928   0.0482 NONPOLAR       1 <1>                0.0000
      7 N7          -4.2009  -0.4673   0.0461 ACCEPTOR       1 <1>                0.0000
      8 C8          -0.7852  -1.1612   0.0687 NONPOLAR       1 <1>                0.0000
      9 C9           0.5779  -0.9446   0.0650 NONPOLAR       1 <1>                0.0000
     10 O10          1.4346  -2.0010   0.0817 DONACC         1 <1>                0.0000
     11 H11          0.5939   2.4473   0.0261                1 <1>                0.0000
     12 H12         -1.8340   2.0714   0.0222                1 <1>                0.0000
     13 H13         -1.1729  -2.1692   0.0810                1 <1>                0.0000
     14 H14          2.8025   1.4823   0.0466                1 <1>                0.0000
     15 H15          3.0647  -0.1770   0.0738                1 <1>                0.0000
     16 H16          1.6821  -2.3205  -0.7967                1 <1>                0.0000
@<TRIPOS>BOND
    1    1    2 1     
    2    1   14 1     
    3    1   15 1     
    4    2    3 ar    
    5    2    9 ar    
    6    3    4 ar    
    7    3   11 1     
    8    4    5 ar    
    9    4   12 1     
   10    5    6 1     
   11    5    8 ar    
   12    6    7 3     
   13    8    9 ar    
   14    8   13 1     
   15    9   10 1     
   16   10   16 1     
@<TRIPOS>SUBSTRUCTURE
      1 ****           1
@<TRIPOS>SET
DONOR_HYDROGENS      STATIC     ATOMS    <user>   **** ""
3 14 15 16
ATOM$RED        STATIC     ATOMS    COLORGROUP SYSTEM
3 14 15 16
