#       Name:                EN300-307464_i001
#       Creating user name   fsindt
#       Creation time:       Tue Feb 28 18:57:10 2023


#       File generated by GOLD software.
#

@<TRIPOS>MOLECULE
EN300-307464_i001|acide_2|mol2|6586|dock16
    18    18     1
SMALL
USER_CHARGES


@<TRIPOS>ATOM
      1 O1          -2.4481 -10.7030  10.0006 O.co2          1 <1>               -1.0000
      2 C2          -1.3414 -11.0756   9.6346 C.2            1 <1>                0.0000
      3 O3          -0.7855 -10.5152   8.6995 O.co2          1 <1>                0.0000
      4 C4          -0.6786 -12.1901  10.3207 C.2            1 <1>                0.0000
      5 C5          -1.2960 -12.8190  11.3202 C.2            1 <1>                0.0000
      6 C6           0.7005 -12.6237   9.8951 C.3            1 <1>                0.0000
      7 N7           0.6075 -13.4016   8.6572 N.pl3          1 <1>                0.0000
      8 C8           0.9995 -14.7015   8.4833 C.2            1 <1>                0.0000
      9 C9           0.7374 -15.0193   7.2011 C.2            1 <1>                0.0000
     10 N10          0.2000 -13.9428   6.6084 N.2            1 <1>                0.0000
     11 C11          0.1138 -12.9719   7.4760 C.2            1 <1>                0.0000
     12 H12         -0.8080 -13.6394  11.8253 H              1 <1>                0.0000
     13 H13         -2.2844 -12.5082  11.6251 H              1 <1>                0.0000
     14 H14          1.3218 -11.7443   9.7259 H              1 <1>                0.0000
     15 H15          1.1458 -13.2381  10.6777 H              1 <1>                0.0000
     16 H16          1.4359 -15.3478   9.2306 H              1 <1>                0.0000
     17 H17          0.9267 -15.9737   6.7325 H              1 <1>                0.0000
     18 H18         -0.2803 -11.9857   7.2798 H              1 <1>                0.0000
@<TRIPOS>BOND
    1    1    2 ar    
    2    2    3 ar    
    3    2    4 1     
    4    4    5 2     
    5    4    6 1     
    6    5   12 1     
    7    5   13 1     
    8    6    7 1     
    9    6   14 1     
   10    6   15 1     
   11    7    8 1     
   12    7   11 1     
   13    8    9 2     
   14    8   16 1     
   15    9   10 1     
   16    9   17 1     
   17   10   11 2     
   18   11   18 1     
@<TRIPOS>SUBSTRUCTURE
      1 ****           1
@<TRIPOS>COMMENT
> <Gold.Version>
2022.2.0

> <Gold.Id.Protein>
3pbl|protein|mol2

> <Gold.Protein.RotatedTorsions>
[ 1303 1298 1297 1294 ] final -122.91 input  179.99 | X-H torsion
[ 2461 2456 2455 2452 ] final -116.05 input   30.03 | X-H torsion
[ 2515 2510 2509 2506 ] final  165.57 input  -89.99 | X-H torsion
[ 3721 3712 3711 3710 ] final   39.44 input -179.91 | X-H torsion
[ 3841 3832 3831 3830 ] final   -9.80 input -179.91 | X-H torsion
[ 3767 3762 3761 3758 ] final   28.00 input  -89.99 | X-H torsion
[ 2472 2467 2466 2463 ] final   36.85 input  -89.97 | X-H torsion

> <Gold.Protein.ActiveResidues>
 VAL82   VAL86   LEU89   PHE106  VAL107  ASP110  VAL111  MET112  CYS114  THR115 
 CYS181  SER182  ILE183  PHE188  VAL189  ILE190  SER192  SER193  SER196  TRP342 
 PHE345  PHE346  HIS349  VAL350  TYR365  THR369  GLY372  TYR373 

> <Gold.Protein.RotatedAtoms>
    4.2726   -8.4757    4.1213 H   0  0  0  0  0  0  0  0  0  0  0  0  # atno 1303 bound_to 1298
    0.5342   -9.1467    8.0110 H   0  0  0  0  0  0  0  0  0  0  0  0  # atno 2461 bound_to 2456
   -4.2697   -4.7996    7.7173 H   0  0  0  0  0  0  0  0  0  0  0  0  # atno 2472 bound_to 2467
    2.2303   -8.8654    5.9761 H   0  0  0  0  0  0  0  0  0  0  0  0  # atno 2515 bound_to 2510
   -2.5054  -18.0146   13.6610 H   0  0  0  0  0  0  0  0  0  0  0  0  # atno 3721 bound_to 3712
   -5.0089  -23.0368   10.0635 H   0  0  0  0  0  0  0  0  0  0  0  0  # atno 3767 bound_to 3762
    1.6614  -20.3723    9.5027 H   0  0  0  0  0  0  0  0  0  0  0  0  # atno 3841 bound_to 3832
    4.7172   -9.8117    4.9481 LP  0  0  0  0  0  0  0  0  0  0  0  0  # atno 4297 bound_to 1298
    3.3723   -9.8343    4.0223 LP  0  0  0  0  0  0  0  0  0  0  0  0  # atno 4298 bound_to 1298
    2.1003   -8.6928    8.1043 LP  0  0  0  0  0  0  0  0  0  0  0  0  # atno 4299 bound_to 2456
    1.1030   -7.9689    7.0329 LP  0  0  0  0  0  0  0  0  0  0  0  0  # atno 4300 bound_to 2456
    2.2306   -7.4121    5.2321 LP  0  0  0  0  0  0  0  0  0  0  0  0  # atno 4301 bound_to 2510
    2.8359   -8.7214    4.4667 LP  0  0  0  0  0  0  0  0  0  0  0  0  # atno 4302 bound_to 2510
   -3.1553  -17.1256   14.8293 LP  0  0  0  0  0  0  0  0  0  0  0  0  # atno 4306 bound_to 3712
   -3.4798  -16.8026   13.2619 LP  0  0  0  0  0  0  0  0  0  0  0  0  # atno 4307 bound_to 3712
    2.2930  -19.6939    8.1925 LP  0  0  0  0  0  0  0  0  0  0  0  0  # atno 4314 bound_to 3832
    3.0172  -20.9783    8.8941 LP  0  0  0  0  0  0  0  0  0  0  0  0  # atno 4315 bound_to 3832
   -5.2035  -21.9179   11.2369 LP  0  0  0  0  0  0  0  0  0  0  0  0  # atno 4318 bound_to 3762
   -3.9150  -22.9205   11.2704 LP  0  0  0  0  0  0  0  0  0  0  0  0  # atno 4319 bound_to 3762
   -3.9549   -5.3114    9.2356 LP  0  0  0  0  0  0  0  0  0  0  0  0  # atno 4320 bound_to 2467
   -5.4923   -5.2825    8.6860 LP  0  0  0  0  0  0  0  0  0  0  0  0  # atno 4321 bound_to 2467

> <Gold.Score>
     Score     S(PLP)   S(hbond)     S(cho)   S(metal)  DE(clash)   DE(tors)     intcor
     39.69     -34.13       1.00       1.00       0.00       0.00       0.22       0.00

> <Gold.PLP.Fitness>
39.6911

> <Gold.PLP.PLP>
-34.1324

> <Gold.PLP.part.hbond>
-1.0000

> <Gold.PLP.part.metal>
0.0000

> <Gold.PLP.part.buried>
-4.6534

> <Gold.PLP.part.nonpolar>
-29.1520

> <Gold.PLP.part.repulsive>
0.0819

> <Gold.PLP.ligand.clash>
0.0000

> <Gold.PLP.ligand.torsion>
0.2222

> <Gold.PLP.Chemscore.Hbond>
1.0000

> <Gold.PLP.Chemscore.CHOScore>
1.0000

> <Gold.PLP.Chemscore.Metal>
0.0000

> <Gold.Chemscore.Hbonds>
donor molecule, donor type, donor heavy atom, donor atom, acceptor molecule, acceptor atom, score
      P1  H  2456  2461       L1     3  1.00
      L1  C     8    16       P1  1227  1.00

> <Gold.PLP.Chemscore.Internal.Correction>
0.0030

