#       Name:                EN300-307464_i001
#       Creating user name   fsindt
#       Creation time:       Tue Feb 28 18:57:02 2023


#       File generated by GOLD software.
#

@<TRIPOS>MOLECULE
EN300-307464_i001|acide_2|mol2|6586|dock2
    18    18     1
SMALL
USER_CHARGES


@<TRIPOS>ATOM
      1 O1           1.5611 -10.5796   7.1333 O.co2          1 <1>               -1.0000
      2 C2           1.0751 -11.7001   7.0576 C.2            1 <1>                0.0000
      3 O3           1.0935 -12.3044   5.9937 O.co2          1 <1>                0.0000
      4 C4           0.4760 -12.3215   8.2438 C.2            1 <1>                0.0000
      5 C5          -0.0603 -13.5384   8.1595 C.2            1 <1>                0.0000
      6 C6           0.4671 -11.5836   9.5578 C.3            1 <1>                0.0000
      7 N7          -0.9008 -11.1648   9.8734 N.pl3          1 <1>                0.0000
      8 C8          -1.3486  -9.8769   9.9934 C.2            1 <1>                0.0000
      9 C9          -2.6606  -9.9465  10.2894 C.2            1 <1>                0.0000
     10 N10         -3.0044 -11.2416  10.3483 N.2            1 <1>                0.0000
     11 C11         -1.9567 -11.9770  10.0944 C.2            1 <1>                0.0000
     12 H12         -0.5015 -13.9958   9.0327 H              1 <1>                0.0000
     13 H13         -0.0540 -14.0672   7.2178 H              1 <1>                0.0000
     14 H14          0.8371 -12.2399  10.3455 H              1 <1>                0.0000
     15 H15          1.1085 -10.7052   9.4855 H              1 <1>                0.0000
     16 H16         -0.7623  -8.9776   9.8745 H              1 <1>                0.0000
     17 H17         -3.3202  -9.1068  10.4508 H              1 <1>                0.0000
     18 H18         -1.9359 -13.0566  10.0722 H              1 <1>                0.0000
@<TRIPOS>BOND
    1    1    2 ar    
    2    2    3 ar    
    3    2    4 1     
    4    4    5 2     
    5    4    6 1     
    6    5   12 1     
    7    5   13 1     
    8    6    7 1     
    9    6   14 1     
   10    6   15 1     
   11    7    8 1     
   12    7   11 1     
   13    8    9 2     
   14    8   16 1     
   15    9   10 1     
   16    9   17 1     
   17   10   11 2     
   18   11   18 1     
@<TRIPOS>SUBSTRUCTURE
      1 ****           1
@<TRIPOS>COMMENT
> <Gold.Version>
2022.2.0

> <Gold.Id.Protein>
3pbl|protein|mol2

> <Gold.Protein.RotatedTorsions>
[ 1303 1298 1297 1294 ] final  -36.92 input  179.99 | X-H torsion
[ 2461 2456 2455 2452 ] final -153.90 input   30.03 | X-H torsion
[ 2515 2510 2509 2506 ] final  179.60 input  -89.99 | X-H torsion
[ 3721 3712 3711 3710 ] final -168.29 input -179.91 | X-H torsion
[ 3841 3832 3831 3830 ] final  -81.20 input -179.91 | X-H torsion
[ 3767 3762 3761 3758 ] final  -49.09 input  -89.99 | X-H torsion
[ 2472 2467 2466 2463 ] final  119.30 input  -89.97 | X-H torsion

> <Gold.Protein.ActiveResidues>
 VAL82   VAL86   LEU89   PHE106  VAL107  ASP110  VAL111  MET112  CYS114  THR115 
 CYS181  SER182  ILE183  PHE188  VAL189  ILE190  SER192  SER193  SER196  TRP342 
 PHE345  PHE346  HIS349  VAL350  TYR365  THR369  GLY372  TYR373 

> <Gold.Protein.RotatedAtoms>
    3.3567   -9.3239    3.8140 H   0  0  0  0  0  0  0  0  0  0  0  0  # atno 1303 bound_to 1298
    1.0374   -9.2888    8.3286 H   0  0  0  0  0  0  0  0  0  0  0  0  # atno 2461 bound_to 2456
   -5.4125   -5.0715    8.1228 H   0  0  0  0  0  0  0  0  0  0  0  0  # atno 2472 bound_to 2467
    2.3211   -9.0328    5.8465 H   0  0  0  0  0  0  0  0  0  0  0  0  # atno 2515 bound_to 2510
   -3.3376  -16.5540   13.7144 H   0  0  0  0  0  0  0  0  0  0  0  0  # atno 3721 bound_to 3712
   -5.5011  -22.1524   10.6607 H   0  0  0  0  0  0  0  0  0  0  0  0  # atno 3767 bound_to 3762
    1.7646  -19.6562    8.7977 H   0  0  0  0  0  0  0  0  0  0  0  0  # atno 3841 bound_to 3832
    4.6813   -8.6220    4.4615 LP  0  0  0  0  0  0  0  0  0  0  0  0  # atno 4297 bound_to 1298
    4.3244  -10.1755    4.8163 LP  0  0  0  0  0  0  0  0  0  0  0  0  # atno 4298 bound_to 1298
    2.1220   -8.2567    7.6761 LP  0  0  0  0  0  0  0  0  0  0  0  0  # atno 4299 bound_to 2456
    0.5783   -8.2630    7.1436 LP  0  0  0  0  0  0  0  0  0  0  0  0  # atno 4300 bound_to 2456
    2.1518   -7.4597    5.4433 LP  0  0  0  0  0  0  0  0  0  0  0  0  # atno 4301 bound_to 2510
    2.8239   -8.5062    4.3851 LP  0  0  0  0  0  0  0  0  0  0  0  0  # atno 4302 bound_to 2510
   -2.8058  -17.9855   13.2186 LP  0  0  0  0  0  0  0  0  0  0  0  0  # atno 4306 bound_to 3712
   -2.8685  -17.6289   14.8109 LP  0  0  0  0  0  0  0  0  0  0  0  0  # atno 4307 bound_to 3712
    3.0931  -20.4519    8.3757 LP  0  0  0  0  0  0  0  0  0  0  0  0  # atno 4314 bound_to 3832
    2.0979  -21.0475    9.5253 LP  0  0  0  0  0  0  0  0  0  0  0  0  # atno 4315 bound_to 3832
   -4.2039  -22.4014   11.6209 LP  0  0  0  0  0  0  0  0  0  0  0  0  # atno 4318 bound_to 3762
   -4.4226  -23.3211   10.2894 LP  0  0  0  0  0  0  0  0  0  0  0  0  # atno 4319 bound_to 3762
   -3.7916   -4.8779    8.0826 LP  0  0  0  0  0  0  0  0  0  0  0  0  # atno 4320 bound_to 2467
   -4.5130   -5.4442    9.4337 LP  0  0  0  0  0  0  0  0  0  0  0  0  # atno 4321 bound_to 2467

> <Gold.Score>
     Score     S(PLP)   S(hbond)     S(cho)   S(metal)  DE(clash)   DE(tors)     intcor
     39.78     -33.85       1.05       1.00       0.00       0.00       0.12       0.00

> <Gold.PLP.Fitness>
39.7770

> <Gold.PLP.PLP>
-33.8511

> <Gold.PLP.part.hbond>
-1.2773

> <Gold.PLP.part.metal>
0.0000

> <Gold.PLP.part.buried>
-2.5434

> <Gold.PLP.part.nonpolar>
-31.3304

> <Gold.PLP.part.repulsive>
0.1592

> <Gold.PLP.ligand.clash>
0.0000

> <Gold.PLP.ligand.torsion>
0.1173

> <Gold.PLP.Chemscore.Hbond>
1.0524

> <Gold.PLP.Chemscore.CHOScore>
1.0000

> <Gold.PLP.Chemscore.Metal>
0.0000

> <Gold.Chemscore.Hbonds>
donor molecule, donor type, donor heavy atom, donor atom, acceptor molecule, acceptor atom, score
      P1  H  2456  2461       L1     1  0.22
      P1  H  2510  2515       L1     1  0.83
      L1  C     9    17       P1  2398  1.00

> <Gold.PLP.Chemscore.Internal.Correction>
0.0034

