#       Name:                EN300-307464_i001
#       Creating user name   fsindt
#       Creation time:       Tue Feb 28 18:57:12 2023


#       File generated by GOLD software.
#

@<TRIPOS>MOLECULE
EN300-307464_i001|acide_2|mol2|6586|dock19
    18    18     1
SMALL
USER_CHARGES


@<TRIPOS>ATOM
      1 O1           1.0513 -10.9385   8.7409 O.co2          1 <1>               -1.0000
      2 C2           0.1088 -11.6203   9.1208 C.2            1 <1>                0.0000
      3 O3          -0.1494 -12.6755   8.5573 O.co2          1 <1>                0.0000
      4 C4          -0.7080 -11.1758  10.2555 C.2            1 <1>                0.0000
      5 C5          -0.3814 -10.0662  10.9171 C.2            1 <1>                0.0000
      6 C6          -1.9162 -11.9739  10.6727 C.3            1 <1>                0.0000
      7 N7          -3.1331 -11.2440  10.3088 N.pl3          1 <1>                0.0000
      8 C8          -3.3428  -9.8978  10.4406 C.2            1 <1>                0.0000
      9 C9          -4.5874  -9.6513   9.9889 C.2            1 <1>                0.0000
     10 N10         -5.1229 -10.8152   9.5922 N.2            1 <1>                0.0000
     11 C11         -4.2554 -11.7727   9.7754 C.2            1 <1>                0.0000
     12 H12         -0.9827  -9.7389  11.7525 H              1 <1>                0.0000
     13 H13          0.4845  -9.4942  10.6181 H              1 <1>                0.0000
     14 H14         -1.9064 -12.9392  10.1666 H              1 <1>                0.0000
     15 H15         -1.8944 -12.1290  11.7515 H              1 <1>                0.0000
     16 H16         -2.6446  -9.1727  10.8322 H              1 <1>                0.0000
     17 H17         -5.0695  -8.6856   9.9524 H              1 <1>                0.0000
     18 H18         -4.4119 -12.8163   9.5455 H              1 <1>                0.0000
@<TRIPOS>BOND
    1    1    2 ar    
    2    2    3 ar    
    3    2    4 1     
    4    4    5 2     
    5    4    6 1     
    6    5   12 1     
    7    5   13 1     
    8    6    7 1     
    9    6   14 1     
   10    6   15 1     
   11    7    8 1     
   12    7   11 1     
   13    8    9 2     
   14    8   16 1     
   15    9   10 1     
   16    9   17 1     
   17   10   11 2     
   18   11   18 1     
@<TRIPOS>SUBSTRUCTURE
      1 ****           1
@<TRIPOS>COMMENT
> <Gold.Version>
2022.2.0

> <Gold.Id.Protein>
3pbl|protein|mol2

> <Gold.Protein.RotatedTorsions>
[ 1303 1298 1297 1294 ] final  -64.24 input  179.99 | X-H torsion
[ 2461 2456 2455 2452 ] final -154.63 input   30.03 | X-H torsion
[ 2515 2510 2509 2506 ] final   43.78 input  -89.99 | X-H torsion
[ 3721 3712 3711 3710 ] final   76.63 input -179.91 | X-H torsion
[ 3841 3832 3831 3830 ] final  178.39 input -179.91 | X-H torsion
[ 3767 3762 3761 3758 ] final -178.54 input  -89.99 | X-H torsion
[ 2472 2467 2466 2463 ] final -129.55 input  -89.97 | X-H torsion

> <Gold.Protein.ActiveResidues>
 VAL82   VAL86   LEU89   PHE106  VAL107  ASP110  VAL111  MET112  CYS114  THR115 
 CYS181  SER182  ILE183  PHE188  VAL189  ILE190  SER192  SER193  SER196  TRP342 
 PHE345  PHE346  HIS349  VAL350  TYR365  THR369  GLY372  TYR373 

> <Gold.Protein.RotatedAtoms>
    3.5364   -8.9179    3.7814 H   0  0  0  0  0  0  0  0  0  0  0  0  # atno 1303 bound_to 1298
    1.0487   -9.2887    8.3325 H   0  0  0  0  0  0  0  0  0  0  0  0  # atno 2461 bound_to 2456
   -4.6576   -5.4583    9.4265 H   0  0  0  0  0  0  0  0  0  0  0  0  # atno 2472 bound_to 2467
    2.2418   -7.4102    5.2051 H   0  0  0  0  0  0  0  0  0  0  0  0  # atno 2515 bound_to 2510
   -2.6906  -17.7620   13.2059 H   0  0  0  0  0  0  0  0  0  0  0  0  # atno 3721 bound_to 3712
   -4.1079  -22.5147   11.5751 H   0  0  0  0  0  0  0  0  0  0  0  0  # atno 3767 bound_to 3762
    2.9714  -20.0684    8.4195 H   0  0  0  0  0  0  0  0  0  0  0  0  # atno 3841 bound_to 3832
    4.8751   -8.9315    4.7163 LP  0  0  0  0  0  0  0  0  0  0  0  0  # atno 4297 bound_to 1298
    3.9508  -10.2721    4.5942 LP  0  0  0  0  0  0  0  0  0  0  0  0  # atno 4298 bound_to 1298
    2.1186   -8.2492    7.6674 LP  0  0  0  0  0  0  0  0  0  0  0  0  # atno 4299 bound_to 2456
    0.5704   -8.2706    7.1484 LP  0  0  0  0  0  0  0  0  0  0  0  0  # atno 4300 bound_to 2456
    2.8357   -8.7475    4.4805 LP  0  0  0  0  0  0  0  0  0  0  0  0  # atno 4301 bound_to 2510
    2.2193   -8.8419    5.9897 LP  0  0  0  0  0  0  0  0  0  0  0  0  # atno 4302 bound_to 2510
   -2.8541  -17.6559   14.7996 LP  0  0  0  0  0  0  0  0  0  0  0  0  # atno 4306 bound_to 3712
   -3.5672  -16.5638   13.8171 LP  0  0  0  0  0  0  0  0  0  0  0  0  # atno 4307 bound_to 3712
    2.3491  -21.1333    9.4465 LP  0  0  0  0  0  0  0  0  0  0  0  0  # atno 4314 bound_to 3832
    1.4478  -19.8899    8.8914 LP  0  0  0  0  0  0  0  0  0  0  0  0  # atno 4315 bound_to 3832
   -4.5494  -23.2881   10.2062 LP  0  0  0  0  0  0  0  0  0  0  0  0  # atno 4318 bound_to 3762
   -5.4698  -22.0722   10.7901 LP  0  0  0  0  0  0  0  0  0  0  0  0  # atno 4319 bound_to 3762
   -5.3385   -5.0212    8.0081 LP  0  0  0  0  0  0  0  0  0  0  0  0  # atno 4320 bound_to 2467
   -3.7209   -4.9141    8.2047 LP  0  0  0  0  0  0  0  0  0  0  0  0  # atno 4321 bound_to 2467

> <Gold.Score>
     Score     S(PLP)   S(hbond)     S(cho)   S(metal)  DE(clash)   DE(tors)     intcor
     47.73     -42.65       1.00       0.95       0.00       0.00       0.39       0.00

> <Gold.PLP.Fitness>
47.7277

> <Gold.PLP.PLP>
-42.6496

> <Gold.PLP.part.hbond>
-1.0000

> <Gold.PLP.part.metal>
0.0000

> <Gold.PLP.part.buried>
-6.0878

> <Gold.PLP.part.nonpolar>
-36.8224

> <Gold.PLP.part.repulsive>
0.1298

> <Gold.PLP.ligand.clash>
0.0000

> <Gold.PLP.ligand.torsion>
0.3855

> <Gold.PLP.Chemscore.Hbond>
1.0000

> <Gold.PLP.Chemscore.CHOScore>
0.9487

> <Gold.PLP.Chemscore.Metal>
0.0000

> <Gold.Chemscore.Hbonds>
donor molecule, donor type, donor heavy atom, donor atom, acceptor molecule, acceptor atom, score
      P1  H  2456  2461       L1     1  1.00
      L1  C     8    16       P1  2398  0.95

> <Gold.PLP.Chemscore.Internal.Correction>
0.0030

