#       Name:                EN300-307464_i001
#       Creating user name   fsindt
#       Creation time:       Tue Feb 28 18:57:06 2023


#       File generated by GOLD software.
#

@<TRIPOS>MOLECULE
EN300-307464_i001|acide_2|mol2|6586|dock10
    18    18     1
SMALL
USER_CHARGES


@<TRIPOS>ATOM
      1 O1          -0.2114 -15.8882  14.7002 O.co2          1 <1>               -1.0000
      2 C2          -0.0203 -17.0969  14.6923 C.2            1 <1>                0.0000
      3 O3          -0.9460 -17.8642  14.9200 O.co2          1 <1>                0.0000
      4 C4           1.3172 -17.6261  14.4039 C.2            1 <1>                0.0000
      5 C5           2.3078 -16.7946  14.0832 C.2            1 <1>                0.0000
      6 C6           1.5708 -19.1101  14.4703 C.3            1 <1>                0.0000
      7 N7           0.9693 -19.7611  13.3038 N.pl3          1 <1>                0.0000
      8 C8          -0.0855 -20.6334  13.3144 C.2            1 <1>                0.0000
      9 C9          -0.3109 -20.9877  12.0348 C.2            1 <1>                0.0000
     10 N10          0.5818 -20.3491  11.2641 N.2            1 <1>                0.0000
     11 C11          1.3482 -19.6080  12.0168 C.2            1 <1>                0.0000
     12 H12          3.2924 -17.1843  13.8708 H              1 <1>                0.0000
     13 H13          2.1261 -15.7311  14.0355 H              1 <1>                0.0000
     14 H14          2.6449 -19.2952  14.4761 H              1 <1>                0.0000
     15 H15          1.1275 -19.5141  15.3806 H              1 <1>                0.0000
     16 H16         -0.6315 -20.9728  14.1822 H              1 <1>                0.0000
     17 H17         -1.0765 -21.6669  11.6899 H              1 <1>                0.0000
     18 H18          2.1563 -18.9819  11.6686 H              1 <1>                0.0000
@<TRIPOS>BOND
    1    1    2 ar    
    2    2    3 ar    
    3    2    4 1     
    4    4    5 2     
    5    4    6 1     
    6    5   12 1     
    7    5   13 1     
    8    6    7 1     
    9    6   14 1     
   10    6   15 1     
   11    7    8 1     
   12    7   11 1     
   13    8    9 2     
   14    8   16 1     
   15    9   10 1     
   16    9   17 1     
   17   10   11 2     
   18   11   18 1     
@<TRIPOS>SUBSTRUCTURE
      1 ****           1
@<TRIPOS>COMMENT
> <Gold.Version>
2022.2.0

> <Gold.Id.Protein>
3pbl|protein|mol2

> <Gold.Protein.RotatedTorsions>
[ 1303 1298 1297 1294 ] final  -56.70 input  179.99 | X-H torsion
[ 2461 2456 2455 2452 ] final -121.64 input   30.03 | X-H torsion
[ 2515 2510 2509 2506 ] final   37.35 input  -89.99 | X-H torsion
[ 3721 3712 3711 3710 ] final   -5.93 input -179.91 | X-H torsion
[ 3841 3832 3831 3830 ] final    5.27 input -179.91 | X-H torsion
[ 3767 3762 3761 3758 ] final  112.69 input  -89.99 | X-H torsion
[ 2472 2467 2466 2463 ] final  113.31 input  -89.97 | X-H torsion

> <Gold.Protein.ActiveResidues>
 VAL82   VAL86   LEU89   PHE106  VAL107  ASP110  VAL111  MET112  CYS114  THR115 
 CYS181  SER182  ILE183  PHE188  VAL189  ILE190  SER192  SER193  SER196  TRP342 
 PHE345  PHE346  HIS349  VAL350  TYR365  THR369  GLY372  TYR373 

> <Gold.Protein.RotatedAtoms>
    3.4715   -9.0233    3.7772 H   0  0  0  0  0  0  0  0  0  0  0  0  # atno 1303 bound_to 1298
    0.5937   -9.1848    8.0699 H   0  0  0  0  0  0  0  0  0  0  0  0  # atno 2461 bound_to 2456
   -5.3644   -5.0377    8.0437 H   0  0  0  0  0  0  0  0  0  0  0  0  # atno 2472 bound_to 2467
    2.2829   -7.4099    5.1076 H   0  0  0  0  0  0  0  0  0  0  0  0  # atno 2515 bound_to 2510
   -2.5016  -17.9187   14.3221 H   0  0  0  0  0  0  0  0  0  0  0  0  # atno 3721 bound_to 3712
   -3.9958  -23.2394   10.8026 H   0  0  0  0  0  0  0  0  0  0  0  0  # atno 3767 bound_to 3762
    1.7848  -20.5458    9.5816 H   0  0  0  0  0  0  0  0  0  0  0  0  # atno 3841 bound_to 3832
    4.8373   -8.8328    4.6517 LP  0  0  0  0  0  0  0  0  0  0  0  0  # atno 4297 bound_to 1298
    4.0536  -10.2654    4.6630 LP  0  0  0  0  0  0  0  0  0  0  0  0  # atno 4298 bound_to 1298
    2.1282   -8.6262    8.0475 LP  0  0  0  0  0  0  0  0  0  0  0  0  # atno 4299 bound_to 2456
    1.0156   -7.9974    7.0309 LP  0  0  0  0  0  0  0  0  0  0  0  0  # atno 4300 bound_to 2456
    2.8317   -8.8374    4.5359 LP  0  0  0  0  0  0  0  0  0  0  0  0  # atno 4301 bound_to 2510
    2.1822   -8.7522    6.0318 LP  0  0  0  0  0  0  0  0  0  0  0  0  # atno 4302 bound_to 2510
   -3.4734  -16.6415   14.3712 LP  0  0  0  0  0  0  0  0  0  0  0  0  # atno 4306 bound_to 3712
   -3.1661  -17.3974   12.9567 LP  0  0  0  0  0  0  0  0  0  0  0  0  # atno 4307 bound_to 3712
    2.0659  -19.6412    8.2859 LP  0  0  0  0  0  0  0  0  0  0  0  0  # atno 4314 bound_to 3832
    3.1017  -20.8306    8.7095 LP  0  0  0  0  0  0  0  0  0  0  0  0  # atno 4315 bound_to 3832
   -5.3840  -22.6269   10.1988 LP  0  0  0  0  0  0  0  0  0  0  0  0  # atno 4318 bound_to 3762
   -4.7473  -22.0091   11.5697 LP  0  0  0  0  0  0  0  0  0  0  0  0  # atno 4319 bound_to 3762
   -3.7416   -4.9017    8.1641 LP  0  0  0  0  0  0  0  0  0  0  0  0  # atno 4320 bound_to 2467
   -4.6110   -5.4541    9.4313 LP  0  0  0  0  0  0  0  0  0  0  0  0  # atno 4321 bound_to 2467

> <Gold.Score>
     Score     S(PLP)   S(hbond)     S(cho)   S(metal)  DE(clash)   DE(tors)     intcor
     39.52     -27.96       3.00       1.00       0.00       0.00       0.22       0.00

> <Gold.PLP.Fitness>
39.5193

> <Gold.PLP.PLP>
-27.9592

> <Gold.PLP.part.hbond>
-3.0000

> <Gold.PLP.part.metal>
0.0000

> <Gold.PLP.part.buried>
-4.3167

> <Gold.PLP.part.nonpolar>
-21.0132

> <Gold.PLP.part.repulsive>
0.1681

> <Gold.PLP.ligand.clash>
0.0000

> <Gold.PLP.ligand.torsion>
0.2167

> <Gold.PLP.Chemscore.Hbond>
3.0000

> <Gold.PLP.Chemscore.CHOScore>
0.9968

> <Gold.PLP.Chemscore.Metal>
0.0000

> <Gold.Chemscore.Hbonds>
donor molecule, donor type, donor heavy atom, donor atom, acceptor molecule, acceptor atom, score
      P1  H  2305  2313       L1     1  1.00
      P1  H  3712  3721       L1     3  1.00
      P1  H  3832  3841       L1    10  1.00
      L1  C    11    18       P1  1227  1.00

> <Gold.PLP.Chemscore.Internal.Correction>
0.0030

