#       Name:                EN300-307464_i001
#       Creating user name   fsindt
#       Creation time:       Tue Feb 28 18:57:08 2023


#       File generated by GOLD software.
#

@<TRIPOS>MOLECULE
EN300-307464_i001|acide_2|mol2|6586|dock13
    18    18     1
SMALL
USER_CHARGES


@<TRIPOS>ATOM
      1 O1          -0.6760 -13.9570  11.6512 O.co2          1 <1>               -1.0000
      2 C2          -0.3993 -13.5023  10.5493 C.2            1 <1>                0.0000
      3 O3           0.2983 -14.1479   9.7785 O.co2          1 <1>                0.0000
      4 C4          -0.9088 -12.1859  10.1499 C.2            1 <1>                0.0000
      5 C5          -0.6910 -11.7335   8.9156 C.2            1 <1>                0.0000
      6 C6          -1.6786 -11.3451  11.1356 C.3            1 <1>                0.0000
      7 N7          -2.9047 -10.8515  10.5037 N.pl3          1 <1>                0.0000
      8 C8          -4.0165 -11.5902  10.2008 C.2            1 <1>                0.0000
      9 C9          -4.9014 -10.7480   9.6340 C.2            1 <1>                0.0000
     10 N10         -4.3450  -9.5283   9.5919 N.2            1 <1>                0.0000
     11 C11         -3.1512  -9.5815  10.1165 C.2            1 <1>                0.0000
     12 H12         -1.0661 -10.7644   8.6216 H              1 <1>                0.0000
     13 H13         -0.1393 -12.3361   8.2092 H              1 <1>                0.0000
     14 H14         -1.9360 -11.9494  12.0054 H              1 <1>                0.0000
     15 H15         -1.0657 -10.4999  11.4489 H              1 <1>                0.0000
     16 H16         -4.1569 -12.6458  10.3811 H              1 <1>                0.0000
     17 H17         -5.8863 -11.0089   9.2761 H              1 <1>                0.0000
     18 H18         -2.4704  -8.7492  10.2173 H              1 <1>                0.0000
@<TRIPOS>BOND
    1    1    2 ar    
    2    2    3 ar    
    3    2    4 1     
    4    4    5 2     
    5    4    6 1     
    6    5   12 1     
    7    5   13 1     
    8    6    7 1     
    9    6   14 1     
   10    6   15 1     
   11    7    8 1     
   12    7   11 1     
   13    8    9 2     
   14    8   16 1     
   15    9   10 1     
   16    9   17 1     
   17   10   11 2     
   18   11   18 1     
@<TRIPOS>SUBSTRUCTURE
      1 ****           1
@<TRIPOS>COMMENT
> <Gold.Version>
2022.2.0

> <Gold.Id.Protein>
3pbl|protein|mol2

> <Gold.Protein.RotatedTorsions>
[ 1303 1298 1297 1294 ] final  -82.04 input  179.99 | X-H torsion
[ 2461 2456 2455 2452 ] final  133.83 input   30.03 | X-H torsion
[ 2515 2510 2509 2506 ] final  150.54 input  -89.99 | X-H torsion
[ 3721 3712 3711 3710 ] final -126.03 input -179.91 | X-H torsion
[ 3841 3832 3831 3830 ] final  157.49 input -179.91 | X-H torsion
[ 3767 3762 3761 3758 ] final  -96.30 input  -89.99 | X-H torsion
[ 2472 2467 2466 2463 ] final  144.67 input  -89.97 | X-H torsion

> <Gold.Protein.ActiveResidues>
 VAL82   VAL86   LEU89   PHE106  VAL107  ASP110  VAL111  MET112  CYS114  THR115 
 CYS181  SER182  ILE183  PHE188  VAL189  ILE190  SER192  SER193  SER196  TRP342 
 PHE345  PHE346  HIS349  VAL350  TYR365  THR369  GLY372  TYR373 

> <Gold.Protein.RotatedAtoms>
    3.7275   -8.7031    3.8308 H   0  0  0  0  0  0  0  0  0  0  0  0  # atno 1303 bound_to 1298
    2.0316   -8.8082    8.1956 H   0  0  0  0  0  0  0  0  0  0  0  0  # atno 2461 bound_to 2456
   -5.5099   -5.2174    8.4978 H   0  0  0  0  0  0  0  0  0  0  0  0  # atno 2472 bound_to 2467
    2.1466   -8.6512    6.0650 H   0  0  0  0  0  0  0  0  0  0  0  0  # atno 2515 bound_to 2510
   -3.2474  -16.6160   14.3292 H   0  0  0  0  0  0  0  0  0  0  0  0  # atno 3721 bound_to 3712
   -5.1543  -21.9141   11.2879 H   0  0  0  0  0  0  0  0  0  0  0  0  # atno 3767 bound_to 3762
    3.1008  -20.3168    8.5617 H   0  0  0  0  0  0  0  0  0  0  0  0  # atno 3841 bound_to 3832
    4.9121   -9.1917    4.8429 LP  0  0  0  0  0  0  0  0  0  0  0  0  # atno 4297 bound_to 1298
    3.7227  -10.2268    4.4180 LP  0  0  0  0  0  0  0  0  0  0  0  0  # atno 4298 bound_to 1298
    1.2603   -7.9333    7.0523 LP  0  0  0  0  0  0  0  0  0  0  0  0  # atno 4299 bound_to 2456
    0.4462   -9.0667    7.9004 LP  0  0  0  0  0  0  0  0  0  0  0  0  # atno 4300 bound_to 2456
    2.3282   -7.4220    5.0059 LP  0  0  0  0  0  0  0  0  0  0  0  0  # atno 4301 bound_to 2510
    2.8220   -8.9258    4.6040 LP  0  0  0  0  0  0  0  0  0  0  0  0  # atno 4302 bound_to 2510
   -3.1407  -17.4418   12.9564 LP  0  0  0  0  0  0  0  0  0  0  0  0  # atno 4306 bound_to 3712
   -2.6379  -18.1010   14.3633 LP  0  0  0  0  0  0  0  0  0  0  0  0  # atno 4307 bound_to 3712
    2.0346  -21.0162    9.5364 LP  0  0  0  0  0  0  0  0  0  0  0  0  # atno 4314 bound_to 3832
    1.6128  -19.7201    8.6371 LP  0  0  0  0  0  0  0  0  0  0  0  0  # atno 4315 bound_to 3832
   -3.9089  -22.9681   11.2185 LP  0  0  0  0  0  0  0  0  0  0  0  0  # atno 4318 bound_to 3762
   -5.0643  -22.9925   10.0648 LP  0  0  0  0  0  0  0  0  0  0  0  0  # atno 4319 bound_to 3762
   -4.0894   -4.8099    7.8031 LP  0  0  0  0  0  0  0  0  0  0  0  0  # atno 4320 bound_to 2467
   -4.1178   -5.3663    9.3382 LP  0  0  0  0  0  0  0  0  0  0  0  0  # atno 4321 bound_to 2467

> <Gold.Score>
     Score     S(PLP)   S(hbond)     S(cho)   S(metal)  DE(clash)   DE(tors)     intcor
     44.64     -39.56       0.00       1.87       0.00       0.00       0.27       0.00

> <Gold.PLP.Fitness>
44.6425

> <Gold.PLP.PLP>
-39.5623

> <Gold.PLP.part.hbond>
0.0000

> <Gold.PLP.part.metal>
0.0000

> <Gold.PLP.part.buried>
-2.2522

> <Gold.PLP.part.nonpolar>
-38.0710

> <Gold.PLP.part.repulsive>
0.2312

> <Gold.PLP.ligand.clash>
0.0000

> <Gold.PLP.ligand.torsion>
0.2690

> <Gold.PLP.Chemscore.Hbond>
0.0000

> <Gold.PLP.Chemscore.CHOScore>
1.8717

> <Gold.PLP.Chemscore.Metal>
0.0000

> <Gold.Chemscore.Hbonds>
donor molecule, donor type, donor heavy atom, donor atom, acceptor molecule, acceptor atom, score
      L1  C     9    17       P1  3417  0.87
      L1  C    11    18       P1  2398  1.00

> <Gold.PLP.Chemscore.Internal.Correction>
0.0030

