#       Name:                EN300-307464_i001
#       Creating user name   fsindt
#       Creation time:       Tue Feb 28 18:57:03 2023


#       File generated by GOLD software.
#

@<TRIPOS>MOLECULE
EN300-307464_i001|acide_2|mol2|6586|dock5
    18    18     1
SMALL
USER_CHARGES


@<TRIPOS>ATOM
      1 O1           1.0051 -11.1070   8.1754 O.co2          1 <1>               -1.0000
      2 C2           0.8489 -12.1951   7.6377 C.2            1 <1>                0.0000
      3 O3           1.1263 -12.3383   6.4545 O.co2          1 <1>                0.0000
      4 C4           0.3349 -13.3295   8.4130 C.2            1 <1>                0.0000
      5 C5           0.0506 -14.4794   7.8027 C.2            1 <1>                0.0000
      6 C6           0.1284 -13.1943   9.8996 C.3            1 <1>                0.0000
      7 N7          -0.8840 -12.1680  10.1607 N.pl3          1 <1>                0.0000
      8 C8          -1.6170 -11.4929   9.2223 C.2            1 <1>                0.0000
      9 C9          -2.4234 -10.6475   9.8922 C.2            1 <1>                0.0000
     10 N10         -2.1892 -10.8023  11.2037 N.2            1 <1>                0.0000
     11 C11         -1.2724 -11.7157  11.3723 C.2            1 <1>                0.0000
     12 H12         -0.3278 -15.3145   8.3735 H              1 <1>                0.0000
     13 H13          0.1986 -14.5763   6.7373 H              1 <1>                0.0000
     14 H14         -0.2068 -14.1476  10.3080 H              1 <1>                0.0000
     15 H15          1.0676 -12.9067  10.3722 H              1 <1>                0.0000
     16 H16         -1.5592 -11.6144   8.1507 H              1 <1>                0.0000
     17 H17         -3.1342  -9.9648   9.4506 H              1 <1>                0.0000
     18 H18         -0.8835 -12.0490  12.3231 H              1 <1>                0.0000
@<TRIPOS>BOND
    1    1    2 ar    
    2    2    3 ar    
    3    2    4 1     
    4    4    5 2     
    5    4    6 1     
    6    5   12 1     
    7    5   13 1     
    8    6    7 1     
    9    6   14 1     
   10    6   15 1     
   11    7    8 1     
   12    7   11 1     
   13    8    9 2     
   14    8   16 1     
   15    9   10 1     
   16    9   17 1     
   17   10   11 2     
   18   11   18 1     
@<TRIPOS>SUBSTRUCTURE
      1 ****           1
@<TRIPOS>COMMENT
> <Gold.Version>
2022.2.0

> <Gold.Id.Protein>
3pbl|protein|mol2

> <Gold.Protein.RotatedTorsions>
[ 1303 1298 1297 1294 ] final   87.39 input  179.99 | X-H torsion
[ 2461 2456 2455 2452 ] final -148.92 input   30.03 | X-H torsion
[ 2515 2510 2509 2506 ] final -145.23 input  -89.99 | X-H torsion
[ 3721 3712 3711 3710 ] final  -39.83 input -179.91 | X-H torsion
[ 3841 3832 3831 3830 ] final   62.61 input -179.91 | X-H torsion
[ 3767 3762 3761 3758 ] final  -77.89 input  -89.99 | X-H torsion
[ 2472 2467 2466 2463 ] final -151.87 input  -89.97 | X-H torsion

> <Gold.Protein.ActiveResidues>
 VAL82   VAL86   LEU89   PHE106  VAL107  ASP110  VAL111  MET112  CYS114  THR115 
 CYS181  SER182  ILE183  PHE188  VAL189  ILE190  SER192  SER193  SER196  TRP342 
 PHE345  PHE346  HIS349  VAL350  TYR365  THR369  GLY372  TYR373 

> <Gold.Protein.RotatedAtoms>
    4.3810  -10.1424    4.8434 H   0  0  0  0  0  0  0  0  0  0  0  0  # atno 1303 bound_to 1298
    0.9608   -9.2865    8.2996 H   0  0  0  0  0  0  0  0  0  0  0  0  # atno 2461 bound_to 2456
   -5.0058   -5.4573    9.3175 H   0  0  0  0  0  0  0  0  0  0  0  0  # atno 2472 bound_to 2467
    2.5648   -9.2530    5.3813 H   0  0  0  0  0  0  0  0  0  0  0  0  # atno 2515 bound_to 2510
   -2.6610  -17.5868   14.6680 H   0  0  0  0  0  0  0  0  0  0  0  0  # atno 3721 bound_to 3712
   -5.3423  -21.9550   11.0553 H   0  0  0  0  0  0  0  0  0  0  0  0  # atno 3767 bound_to 3762
    2.5060  -20.9489    9.4959 H   0  0  0  0  0  0  0  0  0  0  0  0  # atno 3841 bound_to 3832
    3.3435   -9.3915    3.8304 LP  0  0  0  0  0  0  0  0  0  0  0  0  # atno 4297 bound_to 1298
    4.6376   -8.5871    4.4176 LP  0  0  0  0  0  0  0  0  0  0  0  0  # atno 4298 bound_to 1298
    2.1417   -8.3094    7.7357 LP  0  0  0  0  0  0  0  0  0  0  0  0  # atno 4299 bound_to 2456
    0.6352   -8.2125    7.1130 LP  0  0  0  0  0  0  0  0  0  0  0  0  # atno 4300 bound_to 2456
    2.0357   -7.7944    5.8895 LP  0  0  0  0  0  0  0  0  0  0  0  0  # atno 4301 bound_to 2510
    2.6961   -7.9514    4.4043 LP  0  0  0  0  0  0  0  0  0  0  0  0  # atno 4302 bound_to 2510
   -3.5670  -16.5627   13.8265 LP  0  0  0  0  0  0  0  0  0  0  0  0  # atno 4306 bound_to 3712
   -2.8885  -17.8594   13.1022 LP  0  0  0  0  0  0  0  0  0  0  0  0  # atno 4307 bound_to 3712
    1.4411  -19.9025    8.9068 LP  0  0  0  0  0  0  0  0  0  0  0  0  # atno 4314 bound_to 3832
    2.8934  -20.1037    8.1876 LP  0  0  0  0  0  0  0  0  0  0  0  0  # atno 4315 bound_to 3832
   -3.9664  -22.7540   11.4231 LP  0  0  0  0  0  0  0  0  0  0  0  0  # atno 4318 bound_to 3762
   -4.8189  -23.1659   10.0927 LP  0  0  0  0  0  0  0  0  0  0  0  0  # atno 4319 bound_to 3762
   -5.0758   -4.9103    7.7805 LP  0  0  0  0  0  0  0  0  0  0  0  0  # atno 4320 bound_to 2467
   -3.6354   -5.0260    8.5413 LP  0  0  0  0  0  0  0  0  0  0  0  0  # atno 4321 bound_to 2467

> <Gold.Score>
     Score     S(PLP)   S(hbond)     S(cho)   S(metal)  DE(clash)   DE(tors)     intcor
     40.31     -37.40       1.00       0.00       0.00       0.00       0.04       0.00

> <Gold.PLP.Fitness>
40.3116

> <Gold.PLP.PLP>
-37.3979

> <Gold.PLP.part.hbond>
-1.0000

> <Gold.PLP.part.metal>
0.0000

> <Gold.PLP.part.buried>
-4.9852

> <Gold.PLP.part.nonpolar>
-32.0597

> <Gold.PLP.part.repulsive>
0.1195

> <Gold.PLP.ligand.clash>
0.0000

> <Gold.PLP.ligand.torsion>
0.0448

> <Gold.PLP.Chemscore.Hbond>
1.0000

> <Gold.PLP.Chemscore.CHOScore>
0.0000

> <Gold.PLP.Chemscore.Metal>
0.0000

> <Gold.Chemscore.Hbonds>
donor molecule, donor type, donor heavy atom, donor atom, acceptor molecule, acceptor atom, score
      P1  H  2456  2461       L1     1  1.00

> <Gold.PLP.Chemscore.Internal.Correction>
0.0034

