#       Name:                EN300-307464_i001
#       Creating user name   fsindt
#       Creation time:       Tue Feb 28 18:57:11 2023


#       File generated by GOLD software.
#

@<TRIPOS>MOLECULE
EN300-307464_i001|acide_2|mol2|6586|dock18
    18    18     1
SMALL
USER_CHARGES


@<TRIPOS>ATOM
      1 O1           0.5447 -14.1041   6.9230 O.co2          1 <1>               -1.0000
      2 C2           0.1635 -14.0940   8.0858 C.2            1 <1>                0.0000
      3 O3          -0.0976 -15.1463   8.6532 O.co2          1 <1>                0.0000
      4 C4           0.0253 -12.8209   8.8015 C.2            1 <1>                0.0000
      5 C5           0.5233 -11.7029   8.2744 C.2            1 <1>                0.0000
      6 C6          -0.6798 -12.7774  10.1325 C.3            1 <1>                0.0000
      7 N7          -1.7033 -11.7294  10.1090 N.pl3          1 <1>                0.0000
      8 C8          -1.7077 -10.5815  10.8546 C.2            1 <1>                0.0000
      9 C9          -2.8248  -9.9061  10.5235 C.2            1 <1>                0.0000
     10 N10         -3.4844 -10.6222   9.6009 N.2            1 <1>                0.0000
     11 C11         -2.8156 -11.7127   9.3434 C.2            1 <1>                0.0000
     12 H12          0.4216 -10.7656   8.8013 H              1 <1>                0.0000
     13 H13          1.0287 -11.7340   7.3205 H              1 <1>                0.0000
     14 H14         -1.1510 -13.7411  10.3257 H              1 <1>                0.0000
     15 H15          0.0428 -12.5619  10.9197 H              1 <1>                0.0000
     16 H16         -0.9595 -10.2764  11.5712 H              1 <1>                0.0000
     17 H17         -3.1350  -8.9547  10.9296 H              1 <1>                0.0000
     18 H18         -3.1072 -12.4786   8.6400 H              1 <1>                0.0000
@<TRIPOS>BOND
    1    1    2 ar    
    2    2    3 ar    
    3    2    4 1     
    4    4    5 2     
    5    4    6 1     
    6    5   12 1     
    7    5   13 1     
    8    6    7 1     
    9    6   14 1     
   10    6   15 1     
   11    7    8 1     
   12    7   11 1     
   13    8    9 2     
   14    8   16 1     
   15    9   10 1     
   16    9   17 1     
   17   10   11 2     
   18   11   18 1     
@<TRIPOS>SUBSTRUCTURE
      1 ****           1
@<TRIPOS>COMMENT
> <Gold.Version>
2022.2.0

> <Gold.Id.Protein>
3pbl|protein|mol2

> <Gold.Protein.RotatedTorsions>
[ 1303 1298 1297 1294 ] final  157.78 input  179.99 | X-H torsion
[ 2461 2456 2455 2452 ] final   76.23 input   30.03 | X-H torsion
[ 2515 2510 2509 2506 ] final  -42.83 input  -89.99 | X-H torsion
[ 3721 3712 3711 3710 ] final   -0.48 input -179.91 | X-H torsion
[ 3841 3832 3831 3830 ] final   22.46 input -179.91 | X-H torsion
[ 3767 3762 3761 3758 ] final  149.28 input  -89.99 | X-H torsion
[ 2472 2467 2466 2463 ] final  -28.74 input  -89.97 | X-H torsion

> <Gold.Protein.ActiveResidues>
 VAL82   VAL86   LEU89   PHE106  VAL107  ASP110  VAL111  MET112  CYS114  THR115 
 CYS181  SER182  ILE183  PHE188  VAL189  ILE190  SER192  SER193  SER196  TRP342 
 PHE345  PHE346  HIS349  VAL350  TYR365  THR369  GLY372  TYR373 

> <Gold.Protein.RotatedAtoms>
    4.9116   -9.1943    4.8443 H   0  0  0  0  0  0  0  0  0  0  0  0  # atno 1303 bound_to 1298
    2.0638   -8.1601    7.5595 H   0  0  0  0  0  0  0  0  0  0  0  0  # atno 2461 bound_to 2456
   -3.6389   -5.0096    8.4925 H   0  0  0  0  0  0  0  0  0  0  0  0  # atno 2472 bound_to 2467
    2.7762   -8.2240    4.3544 H   0  0  0  0  0  0  0  0  0  0  0  0  # atno 2515 bound_to 2510
   -2.4879  -17.9538   14.2490 H   0  0  0  0  0  0  0  0  0  0  0  0  # atno 3721 bound_to 3712
   -3.9172  -22.9055   11.2852 H   0  0  0  0  0  0  0  0  0  0  0  0  # atno 3767 bound_to 3762
    1.9722  -20.7198    9.6213 H   0  0  0  0  0  0  0  0  0  0  0  0  # atno 3841 bound_to 3832
    3.7204  -10.2258    4.4161 LP  0  0  0  0  0  0  0  0  0  0  0  0  # atno 4297 bound_to 1298
    3.7298   -8.7013    3.8311 LP  0  0  0  0  0  0  0  0  0  0  0  0  # atno 4298 bound_to 1298
    0.4809   -8.3701    7.2166 LP  0  0  0  0  0  0  0  0  0  0  0  0  # atno 4299 bound_to 2456
    1.1933   -9.2778    8.3720 LP  0  0  0  0  0  0  0  0  0  0  0  0  # atno 4300 bound_to 2456
    2.4432   -9.1828    5.6333 LP  0  0  0  0  0  0  0  0  0  0  0  0  # atno 4301 bound_to 2510
    2.0772   -7.5923    5.6879 LP  0  0  0  0  0  0  0  0  0  0  0  0  # atno 4302 bound_to 2510
   -3.4445  -16.6799   14.4485 LP  0  0  0  0  0  0  0  0  0  0  0  0  # atno 4306 bound_to 3712
   -3.2108  -17.3184   12.9638 LP  0  0  0  0  0  0  0  0  0  0  0  0  # atno 4307 bound_to 3712
    1.8240  -19.6447    8.4388 LP  0  0  0  0  0  0  0  0  0  0  0  0  # atno 4314 bound_to 3832
    3.1271  -20.6262    8.5107 LP  0  0  0  0  0  0  0  0  0  0  0  0  # atno 4315 bound_to 3832
   -4.9925  -23.0501   10.0647 LP  0  0  0  0  0  0  0  0  0  0  0  0  # atno 4318 bound_to 3762
   -5.2174  -21.9195   11.2214 LP  0  0  0  0  0  0  0  0  0  0  0  0  # atno 4319 bound_to 3762
   -4.9597   -5.4598    9.3406 LP  0  0  0  0  0  0  0  0  0  0  0  0  # atno 4320 bound_to 2467
   -5.1181   -4.9242    7.8061 LP  0  0  0  0  0  0  0  0  0  0  0  0  # atno 4321 bound_to 2467

> <Gold.Score>
     Score     S(PLP)   S(hbond)     S(cho)   S(metal)  DE(clash)   DE(tors)     intcor
     37.98     -35.31       0.00       1.00       0.00       0.00       0.17       0.00

> <Gold.PLP.Fitness>
37.9775

> <Gold.PLP.PLP>
-35.3067

> <Gold.PLP.part.hbond>
0.0000

> <Gold.PLP.part.metal>
0.0000

> <Gold.PLP.part.buried>
-3.9414

> <Gold.PLP.part.nonpolar>
-31.3312

> <Gold.PLP.part.repulsive>
0.1636

> <Gold.PLP.ligand.clash>
0.0000

> <Gold.PLP.ligand.torsion>
0.1661

> <Gold.PLP.Chemscore.Hbond>
0.0000

> <Gold.PLP.Chemscore.CHOScore>
1.0000

> <Gold.PLP.Chemscore.Metal>
0.0000

> <Gold.Chemscore.Hbonds>
donor molecule, donor type, donor heavy atom, donor atom, acceptor molecule, acceptor atom, score
      L1  C     9    17       P1  2398  1.00

> <Gold.PLP.Chemscore.Internal.Correction>
0.0030

