#       Name:                EN300-307464_i001
#       Creating user name   fsindt
#       Creation time:       Tue Feb 28 18:57:05 2023


#       File generated by GOLD software.
#

@<TRIPOS>MOLECULE
EN300-307464_i001|acide_2|mol2|6586|dock8
    18    18     1
SMALL
USER_CHARGES


@<TRIPOS>ATOM
      1 O1          -0.3825 -10.5332   8.3760 O.co2          1 <1>               -1.0000
      2 C2           0.2300 -11.5341   8.0290 C.2            1 <1>                0.0000
      3 O3           1.0454 -11.4676   7.1189 O.co2          1 <1>                0.0000
      4 C4          -0.0087 -12.8125   8.7080 C.2            1 <1>                0.0000
      5 C5           0.3515 -13.9546   8.1238 C.2            1 <1>                0.0000
      6 C6          -0.6611 -12.8339  10.0662 C.3            1 <1>                0.0000
      7 N7          -1.6598 -11.7650  10.1452 N.pl3          1 <1>                0.0000
      8 C8          -1.6441 -10.7007  11.0058 C.2            1 <1>                0.0000
      9 C9          -2.7424  -9.9681  10.7396 C.2            1 <1>                0.0000
     10 N10         -3.4104 -10.5688   9.7437 N.2            1 <1>                0.0000
     11 C11         -2.7648 -11.6426   9.3786 C.2            1 <1>                0.0000
     12 H12          0.1757 -14.8957   8.6236 H              1 <1>                0.0000
     13 H13          0.8191 -13.9393   7.1503 H              1 <1>                0.0000
     14 H14         -1.1470 -13.7973  10.2207 H              1 <1>                0.0000
     15 H15          0.0960 -12.6813  10.8355 H              1 <1>                0.0000
     16 H16         -0.8952 -10.4894  11.7548 H              1 <1>                0.0000
     17 H17         -3.0340  -9.0567  11.2403 H              1 <1>                0.0000
     18 H18         -3.0680 -12.3243   8.5978 H              1 <1>                0.0000
@<TRIPOS>BOND
    1    1    2 ar    
    2    2    3 ar    
    3    2    4 1     
    4    4    5 2     
    5    4    6 1     
    6    5   12 1     
    7    5   13 1     
    8    6    7 1     
    9    6   14 1     
   10    6   15 1     
   11    7    8 1     
   12    7   11 1     
   13    8    9 2     
   14    8   16 1     
   15    9   10 1     
   16    9   17 1     
   17   10   11 2     
   18   11   18 1     
@<TRIPOS>SUBSTRUCTURE
      1 ****           1
@<TRIPOS>COMMENT
> <Gold.Version>
2022.2.0

> <Gold.Id.Protein>
3pbl|protein|mol2

> <Gold.Protein.RotatedTorsions>
[ 1303 1298 1297 1294 ] final  132.39 input  179.99 | X-H torsion
[ 2461 2456 2455 2452 ] final -134.90 input   30.03 | X-H torsion
[ 2515 2510 2509 2506 ] final  149.78 input  -89.99 | X-H torsion
[ 3721 3712 3711 3710 ] final  -40.43 input -179.91 | X-H torsion
[ 3841 3832 3831 3830 ] final  151.80 input -179.91 | X-H torsion
[ 3767 3762 3761 3758 ] final  -12.05 input  -89.99 | X-H torsion
[ 2472 2467 2466 2463 ] final   74.79 input  -89.97 | X-H torsion

> <Gold.Protein.ActiveResidues>
 VAL82   VAL86   LEU89   PHE106  VAL107  ASP110  VAL111  MET112  CYS114  THR115 
 CYS181  SER182  ILE183  PHE188  VAL189  ILE190  SER192  SER193  SER196  TRP342 
 PHE345  PHE346  HIS349  VAL350  TYR365  THR369  GLY372  TYR373 

> <Gold.Protein.RotatedAtoms>
    4.8329   -9.5889    4.9427 H   0  0  0  0  0  0  0  0  0  0  0  0  # atno 1303 bound_to 1298
    0.7585   -9.2526    8.1951 H   0  0  0  0  0  0  0  0  0  0  0  0  # atno 2461 bound_to 2456
   -4.8795   -4.8595    7.6974 H   0  0  0  0  0  0  0  0  0  0  0  0  # atno 2472 bound_to 2467
    2.1429   -8.6398    6.0680 H   0  0  0  0  0  0  0  0  0  0  0  0  # atno 2515 bound_to 2510
   -2.6647  -17.5796   14.6719 H   0  0  0  0  0  0  0  0  0  0  0  0  # atno 3721 bound_to 3712
   -5.4174  -22.5675   10.2371 H   0  0  0  0  0  0  0  0  0  0  0  0  # atno 3767 bound_to 3762
    3.1193  -20.3847    8.6111 H   0  0  0  0  0  0  0  0  0  0  0  0  # atno 3841 bound_to 3832
    3.4665  -10.0214    4.1603 LP  0  0  0  0  0  0  0  0  0  0  0  0  # atno 4297 bound_to 1298
    4.0625   -8.5109    3.9884 LP  0  0  0  0  0  0  0  0  0  0  0  0  # atno 4298 bound_to 1298
    2.1606   -8.4683    7.9010 LP  0  0  0  0  0  0  0  0  0  0  0  0  # atno 4299 bound_to 2456
    0.8185   -8.0875    7.0521 LP  0  0  0  0  0  0  0  0  0  0  0  0  # atno 4300 bound_to 2456
    2.3334   -7.4241    4.9947 LP  0  0  0  0  0  0  0  0  0  0  0  0  # atno 4301 bound_to 2510
    2.8206   -8.9351    4.6122 LP  0  0  0  0  0  0  0  0  0  0  0  0  # atno 4302 bound_to 2510
   -3.5672  -16.5639   13.8166 LP  0  0  0  0  0  0  0  0  0  0  0  0  # atno 4306 bound_to 3712
   -2.8839  -17.8665   13.1075 LP  0  0  0  0  0  0  0  0  0  0  0  0  # atno 4307 bound_to 3712
    1.9525  -20.9693    9.5453 LP  0  0  0  0  0  0  0  0  0  0  0  0  # atno 4314 bound_to 3832
    1.6736  -19.6886    8.5713 LP  0  0  0  0  0  0  0  0  0  0  0  0  # atno 4315 bound_to 3832
   -4.6810  -22.0404   11.5961 LP  0  0  0  0  0  0  0  0  0  0  0  0  # atno 4318 bound_to 3762
   -4.0293  -23.2671   10.7376 LP  0  0  0  0  0  0  0  0  0  0  0  0  # atno 4319 bound_to 3762
   -3.6514   -5.1016    8.7460 LP  0  0  0  0  0  0  0  0  0  0  0  0  # atno 4320 bound_to 2467
   -5.1861   -5.4324    9.1955 LP  0  0  0  0  0  0  0  0  0  0  0  0  # atno 4321 bound_to 2467

> <Gold.Score>
     Score     S(PLP)   S(hbond)     S(cho)   S(metal)  DE(clash)   DE(tors)     intcor
     40.99     -36.00       1.00       1.00       0.00       0.00       0.51       0.00

> <Gold.PLP.Fitness>
40.9886

> <Gold.PLP.PLP>
-36.0002

> <Gold.PLP.part.hbond>
-1.6523

> <Gold.PLP.part.metal>
0.0000

> <Gold.PLP.part.buried>
-4.2986

> <Gold.PLP.part.nonpolar>
-31.4100

> <Gold.PLP.part.repulsive>
0.0955

> <Gold.PLP.ligand.clash>
0.0000

> <Gold.PLP.ligand.torsion>
0.5060

> <Gold.PLP.Chemscore.Hbond>
1.0000

> <Gold.PLP.Chemscore.CHOScore>
0.9991

> <Gold.PLP.Chemscore.Metal>
0.0000

> <Gold.Chemscore.Hbonds>
donor molecule, donor type, donor heavy atom, donor atom, acceptor molecule, acceptor atom, score
      P1  H  2456  2461       L1     1  1.00
      L1  C     9    17       P1  2398  1.00

> <Gold.PLP.Chemscore.Internal.Correction>
0.0030

