#       Name:                EN300-307464_i001
#       Creating user name   fsindt
#       Creation time:       Tue Feb 28 18:57:12 2023


#       File generated by GOLD software.
#

@<TRIPOS>MOLECULE
EN300-307464_i001|acide_2|mol2|6586|dock20
    18    18     1
SMALL
USER_CHARGES


@<TRIPOS>ATOM
      1 O1          -0.0767 -14.1904   6.6244 O.co2          1 <1>               -1.0000
      2 C2          -0.0378 -14.1177   7.8454 C.2            1 <1>                0.0000
      3 O3          -0.0941 -15.1364   8.5211 O.co2          1 <1>                0.0000
      4 C4           0.0826 -12.8098   8.4989 C.2            1 <1>                0.0000
      5 C5           0.5071 -11.7546   7.8046 C.2            1 <1>                0.0000
      6 C6          -0.2738 -12.6596   9.9554 C.3            1 <1>                0.0000
      7 N7          -1.1738 -11.5157  10.1224 N.pl3          1 <1>                0.0000
      8 C8          -2.4332 -11.3902   9.6009 C.2            1 <1>                0.0000
      9 C9          -2.9011 -10.1911   9.9970 C.2            1 <1>                0.0000
     10 N10         -1.9534  -9.6007  10.7401 N.2            1 <1>                0.0000
     11 C11         -0.9182 -10.3909  10.8244 C.2            1 <1>                0.0000
     12 H12          0.5957 -10.7918   8.2857 H              1 <1>                0.0000
     13 H13          0.7626 -11.8623   6.7607 H              1 <1>                0.0000
     14 H14         -0.7695 -13.5658  10.3034 H              1 <1>                0.0000
     15 H15          0.6337 -12.4957  10.5365 H              1 <1>                0.0000
     16 H16         -2.9516 -12.1134   8.9887 H              1 <1>                0.0000
     17 H17         -3.8698  -9.7775   9.7583 H              1 <1>                0.0000
     18 H18         -0.0054 -10.1772  11.3605 H              1 <1>                0.0000
@<TRIPOS>BOND
    1    1    2 ar    
    2    2    3 ar    
    3    2    4 1     
    4    4    5 2     
    5    4    6 1     
    6    5   12 1     
    7    5   13 1     
    8    6    7 1     
    9    6   14 1     
   10    6   15 1     
   11    7    8 1     
   12    7   11 1     
   13    8    9 2     
   14    8   16 1     
   15    9   10 1     
   16    9   17 1     
   17   10   11 2     
   18   11   18 1     
@<TRIPOS>SUBSTRUCTURE
      1 ****           1
@<TRIPOS>COMMENT
> <Gold.Version>
2022.2.0

> <Gold.Id.Protein>
3pbl|protein|mol2

> <Gold.Protein.RotatedTorsions>
[ 1303 1298 1297 1294 ] final -176.64 input  179.99 | X-H torsion
[ 2461 2456 2455 2452 ] final  117.86 input   30.03 | X-H torsion
[ 2515 2510 2509 2506 ] final  108.16 input  -89.99 | X-H torsion
[ 3721 3712 3711 3710 ] final -143.39 input -179.91 | X-H torsion
[ 3841 3832 3831 3830 ] final  -99.86 input -179.91 | X-H torsion
[ 3767 3762 3761 3758 ] final   53.01 input  -89.99 | X-H torsion
[ 2472 2467 2466 2463 ] final  172.38 input  -89.97 | X-H torsion

> <Gold.Protein.ActiveResidues>
 VAL82   VAL86   LEU89   PHE106  VAL107  ASP110  VAL111  MET112  CYS114  THR115 
 CYS181  SER182  ILE183  PHE188  VAL189  ILE190  SER192  SER193  SER196  TRP342 
 PHE345  PHE346  HIS349  VAL350  TYR365  THR369  GLY372  TYR373 

> <Gold.Protein.RotatedAtoms>
    4.8364   -8.8319    4.6514 H   0  0  0  0  0  0  0  0  0  0  0  0  # atno 1303 bound_to 1298
    2.1306   -8.6202    8.0424 H   0  0  0  0  0  0  0  0  0  0  0  0  # atno 2461 bound_to 2456
   -5.4099   -5.3569    8.9156 H   0  0  0  0  0  0  0  0  0  0  0  0  # atno 2472 bound_to 2467
    2.0292   -7.9831    6.0018 H   0  0  0  0  0  0  0  0  0  0  0  0  # atno 2515 bound_to 2510
   -3.3113  -16.5420   14.0867 H   0  0  0  0  0  0  0  0  0  0  0  0  # atno 3721 bound_to 3712
   -4.6663  -23.2429   10.1460 H   0  0  0  0  0  0  0  0  0  0  0  0  # atno 3767 bound_to 3762
    1.9641  -19.5874    8.6125 H   0  0  0  0  0  0  0  0  0  0  0  0  # atno 3841 bound_to 3832
    4.0543  -10.2653    4.6635 LP  0  0  0  0  0  0  0  0  0  0  0  0  # atno 4297 bound_to 1298
    3.4711   -9.0243    3.7766 LP  0  0  0  0  0  0  0  0  0  0  0  0  # atno 4298 bound_to 1298
    1.0080   -8.0002    7.0311 LP  0  0  0  0  0  0  0  0  0  0  0  0  # atno 4299 bound_to 2456
    0.5995   -9.1878    8.0748 LP  0  0  0  0  0  0  0  0  0  0  0  0  # atno 4300 bound_to 2456
    2.6183   -7.7668    4.4945 LP  0  0  0  0  0  0  0  0  0  0  0  0  # atno 4301 bound_to 2510
    2.6494   -9.2493    5.1785 LP  0  0  0  0  0  0  0  0  0  0  0  0  # atno 4302 bound_to 2510
   -2.9958  -17.6869   13.0062 LP  0  0  0  0  0  0  0  0  0  0  0  0  # atno 4306 bound_to 3712
   -2.7089  -17.9413   14.5935 LP  0  0  0  0  0  0  0  0  0  0  0  0  # atno 4307 bound_to 3712
    3.1276  -20.6921    8.5694 LP  0  0  0  0  0  0  0  0  0  0  0  0  # atno 4314 bound_to 3832
    1.8330  -20.8868    9.5454 LP  0  0  0  0  0  0  0  0  0  0  0  0  # atno 4315 bound_to 3832
   -5.4242  -22.0127   10.9069 LP  0  0  0  0  0  0  0  0  0  0  0  0  # atno 4318 bound_to 3762
   -4.0368  -22.6197   11.5179 LP  0  0  0  0  0  0  0  0  0  0  0  0  # atno 4319 bound_to 3762
   -4.5187   -4.8066    7.6629 LP  0  0  0  0  0  0  0  0  0  0  0  0  # atno 4320 bound_to 2467
   -3.7885   -5.2301    9.0608 LP  0  0  0  0  0  0  0  0  0  0  0  0  # atno 4321 bound_to 2467

> <Gold.Score>
     Score     S(PLP)   S(hbond)     S(cho)   S(metal)  DE(clash)   DE(tors)     intcor
     36.65     -37.16       0.00       0.00       0.00       0.00       0.26       0.00

> <Gold.PLP.Fitness>
36.6470

> <Gold.PLP.PLP>
-37.1607

> <Gold.PLP.part.hbond>
0.0000

> <Gold.PLP.part.metal>
0.0000

> <Gold.PLP.part.buried>
-4.1436

> <Gold.PLP.part.nonpolar>
-33.4726

> <Gold.PLP.part.repulsive>
0.4907

> <Gold.PLP.ligand.clash>
0.0000

> <Gold.PLP.ligand.torsion>
0.2583

> <Gold.PLP.Chemscore.Hbond>
0.0000

> <Gold.PLP.Chemscore.CHOScore>
0.0000

> <Gold.PLP.Chemscore.Metal>
0.0000

> <Gold.PLP.Chemscore.Internal.Correction>
0.0030

