#       Name:                EN300-307464_i001
#       Creating user name   fsindt
#       Creation time:       Tue Feb 28 18:57:09 2023


#       File generated by GOLD software.
#

@<TRIPOS>MOLECULE
EN300-307464_i001|acide_2|mol2|6586|dock15
    18    18     1
SMALL
USER_CHARGES


@<TRIPOS>ATOM
      1 O1           1.0995 -12.4160   6.3594 O.co2          1 <1>               -1.0000
      2 C2           0.8419 -12.1404   7.5236 C.2            1 <1>                0.0000
      3 O3           0.8178 -10.9714   7.8847 O.co2          1 <1>                0.0000
      4 C4           0.5561 -13.2111   8.4849 C.2            1 <1>                0.0000
      5 C5           0.4107 -14.4659   8.0608 C.2            1 <1>                0.0000
      6 C6           0.4271 -12.8918   9.9520 C.3            1 <1>                0.0000
      7 N7          -0.5092 -11.7791  10.1292 N.pl3          1 <1>                0.0000
      8 C8          -0.1921 -10.5039  10.5126 C.2            1 <1>                0.0000
      9 C9          -1.3456  -9.8098  10.5492 C.2            1 <1>                0.0000
     10 N10         -2.3398 -10.6386  10.1978 N.2            1 <1>                0.0000
     11 C11         -1.8456 -11.8184   9.9391 C.2            1 <1>                0.0000
     12 H12          0.2002 -15.2541   8.7685 H              1 <1>                0.0000
     13 H13          0.5031 -14.6947   7.0093 H              1 <1>                0.0000
     14 H14          0.0550 -13.7679  10.4831 H              1 <1>                0.0000
     15 H15          1.4026 -12.6127  10.3503 H              1 <1>                0.0000
     16 H16          0.7937 -10.1271  10.7422 H              1 <1>                0.0000
     17 H17         -1.4514  -8.7684  10.8149 H              1 <1>                0.0000
     18 H18         -2.4124 -12.6845   9.6312 H              1 <1>                0.0000
@<TRIPOS>BOND
    1    1    2 ar    
    2    2    3 ar    
    3    2    4 1     
    4    4    5 2     
    5    4    6 1     
    6    5   12 1     
    7    5   13 1     
    8    6    7 1     
    9    6   14 1     
   10    6   15 1     
   11    7    8 1     
   12    7   11 1     
   13    8    9 2     
   14    8   16 1     
   15    9   10 1     
   16    9   17 1     
   17   10   11 2     
   18   11   18 1     
@<TRIPOS>SUBSTRUCTURE
      1 ****           1
@<TRIPOS>COMMENT
> <Gold.Version>
2022.2.0

> <Gold.Id.Protein>
3pbl|protein|mol2

> <Gold.Protein.RotatedTorsions>
[ 1303 1298 1297 1294 ] final  -41.88 input  179.99 | X-H torsion
[ 2461 2456 2455 2452 ] final -145.72 input   30.03 | X-H torsion
[ 2515 2510 2509 2506 ] final  166.03 input  -89.99 | X-H torsion
[ 3721 3712 3711 3710 ] final  150.51 input -179.91 | X-H torsion
[ 3841 3832 3831 3830 ] final  -21.17 input -179.91 | X-H torsion
[ 3767 3762 3761 3758 ] final  148.60 input  -89.99 | X-H torsion
[ 2472 2467 2466 2463 ] final  146.30 input  -89.97 | X-H torsion

> <Gold.Protein.ActiveResidues>
 VAL82   VAL86   LEU89   PHE106  VAL107  ASP110  VAL111  MET112  CYS114  THR115 
 CYS181  SER182  ILE183  PHE188  VAL189  ILE190  SER192  SER193  SER196  TRP342 
 PHE345  PHE346  HIS349  VAL350  TYR365  THR369  GLY372  TYR373 

> <Gold.Protein.RotatedAtoms>
    3.3774   -9.2465    3.7984 H   0  0  0  0  0  0  0  0  0  0  0  0  # atno 1303 bound_to 1298
    0.9126   -9.2823    8.2786 H   0  0  0  0  0  0  0  0  0  0  0  0  # atno 2461 bound_to 2456
   -5.5100   -5.2264    8.5230 H   0  0  0  0  0  0  0  0  0  0  0  0  # atno 2472 bound_to 2467
    2.2331   -8.8714    5.9725 H   0  0  0  0  0  0  0  0  0  0  0  0  # atno 2515 bound_to 2510
   -3.2084  -16.8589   13.2026 H   0  0  0  0  0  0  0  0  0  0  0  0  # atno 3721 bound_to 3712
   -3.9157  -22.9133   11.2772 H   0  0  0  0  0  0  0  0  0  0  0  0  # atno 3767 bound_to 3762
    1.5992  -20.2361    9.4193 H   0  0  0  0  0  0  0  0  0  0  0  0  # atno 3841 bound_to 3832
    4.7275   -8.6673    4.5112 LP  0  0  0  0  0  0  0  0  0  0  0  0  # atno 4297 bound_to 1298
    4.2575  -10.2075    4.7823 LP  0  0  0  0  0  0  0  0  0  0  0  0  # atno 4298 bound_to 1298
    2.1508   -8.3445    7.7739 LP  0  0  0  0  0  0  0  0  0  0  0  0  # atno 4299 bound_to 2456
    0.6743   -8.1816    7.0958 LP  0  0  0  0  0  0  0  0  0  0  0  0  # atno 4300 bound_to 2456
    2.2278   -7.4128    5.2391 LP  0  0  0  0  0  0  0  0  0  0  0  0  # atno 4301 bound_to 2510
    2.8359   -8.7147    4.4633 LP  0  0  0  0  0  0  0  0  0  0  0  0  # atno 4302 bound_to 2510
   -2.6192  -18.2175   13.8230 LP  0  0  0  0  0  0  0  0  0  0  0  0  # atno 4306 bound_to 3712
   -3.2044  -17.0450   14.7974 LP  0  0  0  0  0  0  0  0  0  0  0  0  # atno 4307 bound_to 3712
    2.4636  -19.7658    8.1513 LP  0  0  0  0  0  0  0  0  0  0  0  0  # atno 4314 bound_to 3832
    2.9185  -21.0637    9.0317 LP  0  0  0  0  0  0  0  0  0  0  0  0  # atno 4315 bound_to 3832
   -5.0014  -23.0433   10.0643 LP  0  0  0  0  0  0  0  0  0  0  0  0  # atno 4318 bound_to 3762
   -5.2100  -21.9186   11.2297 LP  0  0  0  0  0  0  0  0  0  0  0  0  # atno 4319 bound_to 3762
   -4.1124   -4.8076    7.7897 LP  0  0  0  0  0  0  0  0  0  0  0  0  # atno 4320 bound_to 2467
   -4.0947   -5.3595    9.3265 LP  0  0  0  0  0  0  0  0  0  0  0  0  # atno 4321 bound_to 2467

> <Gold.Score>
     Score     S(PLP)   S(hbond)     S(cho)   S(metal)  DE(clash)   DE(tors)     intcor
     41.33     -36.02       0.91       1.00       0.00       0.00       0.21       0.00

> <Gold.PLP.Fitness>
41.3277

> <Gold.PLP.PLP>
-36.0209

> <Gold.PLP.part.hbond>
-1.0000

> <Gold.PLP.part.metal>
0.0000

> <Gold.PLP.part.buried>
-5.5293

> <Gold.PLP.part.nonpolar>
-30.5120

> <Gold.PLP.part.repulsive>
0.1196

> <Gold.PLP.ligand.clash>
0.0000

> <Gold.PLP.ligand.torsion>
0.2149

> <Gold.PLP.Chemscore.Hbond>
0.9120

> <Gold.PLP.Chemscore.CHOScore>
0.9992

> <Gold.PLP.Chemscore.Metal>
0.0000

> <Gold.Chemscore.Hbonds>
donor molecule, donor type, donor heavy atom, donor atom, acceptor molecule, acceptor atom, score
      P1  H  2456  2461       L1     3  0.91
      L1  C     9    17       P1  2398  1.00

> <Gold.PLP.Chemscore.Internal.Correction>
0.0030

