#       Name:                EN300-307464_i001
#       Creating user name   fsindt
#       Creation time:       Tue Feb 28 18:57:01 2023


#       File generated by GOLD software.
#

@<TRIPOS>MOLECULE
EN300-307464_i001|acide_2|mol2|6586|dock1
    18    18     1
SMALL
USER_CHARGES


@<TRIPOS>ATOM
      1 O1           0.1529 -12.3962   8.0377 O.co2          1 <1>               -1.0000
      2 C2          -0.4202 -11.7376   8.8953 C.2            1 <1>                0.0000
      3 O3          -0.7014 -10.5661   8.6808 O.co2          1 <1>                0.0000
      4 C4          -0.7756 -12.3542  10.1781 C.2            1 <1>                0.0000
      5 C5          -0.3840 -13.5985  10.4504 C.2            1 <1>                0.0000
      6 C6          -1.5835 -11.5806  11.1878 C.3            1 <1>                0.0000
      7 N7          -2.7654 -11.0117  10.5352 N.pl3          1 <1>                0.0000
      8 C8          -3.8951 -11.6907  10.1660 C.2            1 <1>                0.0000
      9 C9          -4.7243 -10.7906   9.6037 C.2            1 <1>                0.0000
     10 N10         -4.1174  -9.5948   9.6290 N.2            1 <1>                0.0000
     11 C11         -2.9460  -9.7185  10.1908 C.2            1 <1>                0.0000
     12 H12         -0.6457 -14.0524  11.3948 H              1 <1>                0.0000
     13 H13          0.1950 -14.1530   9.7267 H              1 <1>                0.0000
     14 H14         -1.8975 -12.2481  11.9903 H              1 <1>                0.0000
     15 H15         -0.9745 -10.7766  11.6014 H              1 <1>                0.0000
     16 H16         -4.0848 -12.7455  10.2993 H              1 <1>                0.0000
     17 H17         -5.7059 -10.9959   9.2029 H              1 <1>                0.0000
     18 H18         -2.2358  -8.9202  10.3476 H              1 <1>                0.0000
@<TRIPOS>BOND
    1    1    2 ar    
    2    2    3 ar    
    3    2    4 1     
    4    4    5 2     
    5    4    6 1     
    6    5   12 1     
    7    5   13 1     
    8    6    7 1     
    9    6   14 1     
   10    6   15 1     
   11    7    8 1     
   12    7   11 1     
   13    8    9 2     
   14    8   16 1     
   15    9   10 1     
   16    9   17 1     
   17   10   11 2     
   18   11   18 1     
@<TRIPOS>SUBSTRUCTURE
      1 ****           1
@<TRIPOS>COMMENT
> <Gold.Version>
2022.2.0

> <Gold.Id.Protein>
3pbl|protein|mol2

> <Gold.Protein.RotatedTorsions>
[ 1303 1298 1297 1294 ] final  120.59 input  179.99 | X-H torsion
[ 2461 2456 2455 2452 ] final -123.41 input   30.03 | X-H torsion
[ 2515 2510 2509 2506 ] final  -33.82 input  -89.99 | X-H torsion
[ 3721 3712 3711 3710 ] final  136.27 input -179.91 | X-H torsion
[ 3841 3832 3831 3830 ] final -113.60 input -179.91 | X-H torsion
[ 3767 3762 3761 3758 ] final -107.07 input  -89.99 | X-H torsion
[ 2472 2467 2466 2463 ] final  -66.40 input  -89.97 | X-H torsion

> <Gold.Protein.ActiveResidues>
 VAL82   VAL86   LEU89   PHE106  VAL107  ASP110  VAL111  MET112  CYS114  THR115 
 CYS181  SER182  ILE183  PHE188  VAL189  ILE190  SER192  SER193  SER196  TRP342 
 PHE345  PHE346  HIS349  VAL350  TYR365  THR369  GLY372  TYR373 

> <Gold.Protein.RotatedAtoms>
    4.7475   -9.7627    4.9507 H   0  0  0  0  0  0  0  0  0  0  0  0  # atno 1303 bound_to 1298
    0.6139   -9.1957    8.0878 H   0  0  0  0  0  0  0  0  0  0  0  0  # atno 2461 bound_to 2456
   -3.7775   -5.2240    9.0450 H   0  0  0  0  0  0  0  0  0  0  0  0  # atno 2472 bound_to 2467
    2.7389   -8.0817    4.3701 H   0  0  0  0  0  0  0  0  0  0  0  0  # atno 2515 bound_to 2510
   -3.1227  -17.0249   13.0968 H   0  0  0  0  0  0  0  0  0  0  0  0  # atno 3721 bound_to 3712
   -5.0218  -21.9240   11.4047 H   0  0  0  0  0  0  0  0  0  0  0  0  # atno 3767 bound_to 3762
    2.1380  -19.5824    8.5003 H   0  0  0  0  0  0  0  0  0  0  0  0  # atno 3841 bound_to 3832
    3.3893   -9.8804    4.0520 LP  0  0  0  0  0  0  0  0  0  0  0  0  # atno 4297 bound_to 1298
    4.2252   -8.4781    4.0887 LP  0  0  0  0  0  0  0  0  0  0  0  0  # atno 4298 bound_to 1298
    2.1353   -8.6050    8.0288 LP  0  0  0  0  0  0  0  0  0  0  0  0  # atno 4299 bound_to 2456
    0.9884   -8.0076    7.0316 LP  0  0  0  0  0  0  0  0  0  0  0  0  # atno 4300 bound_to 2456
    2.5062   -9.2294    5.5078 LP  0  0  0  0  0  0  0  0  0  0  0  0  # atno 4301 bound_to 2510
    2.0515   -7.6881    5.7978 LP  0  0  0  0  0  0  0  0  0  0  0  0  # atno 4302 bound_to 2510
   -2.6071  -18.2018   14.0595 LP  0  0  0  0  0  0  0  0  0  0  0  0  # atno 4306 bound_to 3712
   -3.3153  -16.8690   14.6831 LP  0  0  0  0  0  0  0  0  0  0  0  0  # atno 4307 bound_to 3712
    3.0945  -20.8503    8.7316 LP  0  0  0  0  0  0  0  0  0  0  0  0  # atno 4314 bound_to 3832
    1.6652  -20.7344    9.5129 LP  0  0  0  0  0  0  0  0  0  0  0  0  # atno 4315 bound_to 3832
   -3.9132  -23.0783   11.0802 LP  0  0  0  0  0  0  0  0  0  0  0  0  # atno 4318 bound_to 3762
   -5.1924  -22.8724   10.0863 LP  0  0  0  0  0  0  0  0  0  0  0  0  # atno 4319 bound_to 3762
   -5.4008   -5.3614    8.9329 LP  0  0  0  0  0  0  0  0  0  0  0  0  # atno 4320 bound_to 2467
   -4.5384   -4.8082    7.6613 LP  0  0  0  0  0  0  0  0  0  0  0  0  # atno 4321 bound_to 2467

> <Gold.Score>
     Score     S(PLP)   S(hbond)     S(cho)   S(metal)  DE(clash)   DE(tors)     intcor
     47.78     -40.73       1.00       1.55       0.00       0.00       0.30       0.01

> <Gold.PLP.Fitness>
47.7836

> <Gold.PLP.PLP>
-40.7251

> <Gold.PLP.part.hbond>
-1.0000

> <Gold.PLP.part.metal>
0.0000

> <Gold.PLP.part.buried>
-3.7266

> <Gold.PLP.part.nonpolar>
-36.3500

> <Gold.PLP.part.repulsive>
0.1247

> <Gold.PLP.ligand.clash>
0.0000

> <Gold.PLP.ligand.torsion>
0.2961

> <Gold.PLP.Chemscore.Hbond>
1.0000

> <Gold.PLP.Chemscore.CHOScore>
1.5475

> <Gold.PLP.Chemscore.Metal>
0.0000

> <Gold.Chemscore.Hbonds>
donor molecule, donor type, donor heavy atom, donor atom, acceptor molecule, acceptor atom, score
      P1  H  2456  2461       L1     3  1.00
      L1  C     9    17       P1  3417  0.66
      L1  C    11    18       P1  2398  0.88

> <Gold.PLP.Chemscore.Internal.Correction>
0.0081

