#       Name:                EN300-307464_i001
#       Creating user name   fsindt
#       Creation time:       Tue Feb 28 18:57:10 2023


#       File generated by GOLD software.
#

@<TRIPOS>MOLECULE
EN300-307464_i001|acide_2|mol2|6586|dock17
    18    18     1
SMALL
USER_CHARGES


@<TRIPOS>ATOM
      1 O1           1.7126 -20.4025  11.4630 O.co2          1 <1>               -1.0000
      2 C2           0.7410 -20.6745  12.1556 C.2            1 <1>                0.0000
      3 O3          -0.0305 -21.5582  11.8073 O.co2          1 <1>                0.0000
      4 C4           0.5046 -19.9453  13.4064 C.2            1 <1>                0.0000
      5 C5          -0.7062 -19.9521  13.9629 C.2            1 <1>                0.0000
      6 C6           1.6309 -19.1888  14.0621 C.3            1 <1>                0.0000
      7 N7           1.4098 -17.7493  13.9032 N.pl3          1 <1>                0.0000
      8 C8           1.9482 -16.9469  12.9337 C.2            1 <1>                0.0000
      9 C9           1.4860 -15.7019  13.1573 C.2            1 <1>                0.0000
     10 N10          0.6872 -15.7430  14.2339 N.2            1 <1>                0.0000
     11 C11          0.6322 -16.9673  14.6825 C.2            1 <1>                0.0000
     12 H12         -0.8803 -19.4153  14.8837 H              1 <1>                0.0000
     13 H13         -1.5135 -20.4943  13.4930 H              1 <1>                0.0000
     14 H14          1.6656 -19.4362  15.1230 H              1 <1>                0.0000
     15 H15          2.5755 -19.4652  13.5934 H              1 <1>                0.0000
     16 H16          2.6159 -17.2533  12.1420 H              1 <1>                0.0000
     17 H17          1.7179 -14.8243  12.5721 H              1 <1>                0.0000
     18 H18          0.0647 -17.2986  15.5396 H              1 <1>                0.0000
@<TRIPOS>BOND
    1    1    2 ar    
    2    2    3 ar    
    3    2    4 1     
    4    4    5 2     
    5    4    6 1     
    6    5   12 1     
    7    5   13 1     
    8    6    7 1     
    9    6   14 1     
   10    6   15 1     
   11    7    8 1     
   12    7   11 1     
   13    8    9 2     
   14    8   16 1     
   15    9   10 1     
   16    9   17 1     
   17   10   11 2     
   18   11   18 1     
@<TRIPOS>SUBSTRUCTURE
      1 ****           1
@<TRIPOS>COMMENT
> <Gold.Version>
2022.2.0

> <Gold.Id.Protein>
3pbl|protein|mol2

> <Gold.Protein.RotatedTorsions>
[ 1303 1298 1297 1294 ] final  105.49 input  179.99 | X-H torsion
[ 2461 2456 2455 2452 ] final -178.62 input   30.03 | X-H torsion
[ 2515 2510 2509 2506 ] final  173.12 input  -89.99 | X-H torsion
[ 3721 3712 3711 3710 ] final   17.97 input -179.91 | X-H torsion
[ 3841 3832 3831 3830 ] final   10.95 input -179.91 | X-H torsion
[ 3767 3762 3761 3758 ] final  157.58 input  -89.99 | X-H torsion
[ 2472 2467 2466 2463 ] final  -97.31 input  -89.97 | X-H torsion

> <Gold.Protein.ActiveResidues>
 VAL82   VAL86   LEU89   PHE106  VAL107  ASP110  VAL111  MET112  CYS114  THR115 
 CYS181  SER182  ILE183  PHE188  VAL189  ILE190  SER192  SER193  SER196  TRP342 
 PHE345  PHE346  HIS349  VAL350  TYR365  THR369  GLY372  TYR373 

> <Gold.Protein.RotatedAtoms>
    4.6002   -9.9601    4.9250 H   0  0  0  0  0  0  0  0  0  0  0  0  # atno 1303 bound_to 1298
    1.4294   -9.2243    8.4011 H   0  0  0  0  0  0  0  0  0  0  0  0  # atno 2461 bound_to 2456
   -4.1463   -5.3749    9.3513 H   0  0  0  0  0  0  0  0  0  0  0  0  # atno 2472 bound_to 2467
    2.2780   -8.9601    5.9115 H   0  0  0  0  0  0  0  0  0  0  0  0  # atno 2515 bound_to 2510
   -2.4701  -18.0265   13.9816 H   0  0  0  0  0  0  0  0  0  0  0  0  # atno 3721 bound_to 3712
   -3.9442  -22.8084   11.3771 H   0  0  0  0  0  0  0  0  0  0  0  0  # atno 3767 bound_to 3762
    1.8419  -20.6068    9.6009 H   0  0  0  0  0  0  0  0  0  0  0  0  # atno 3841 bound_to 3832
    3.3360   -9.6697    3.9331 LP  0  0  0  0  0  0  0  0  0  0  0  0  # atno 4297 bound_to 1298
    4.4258   -8.4913    4.2332 LP  0  0  0  0  0  0  0  0  0  0  0  0  # atno 4298 bound_to 1298
    1.9308   -8.0407    7.3937 LP  0  0  0  0  0  0  0  0  0  0  0  0  # atno 4299 bound_to 2456
    0.3776   -8.5433    7.3536 LP  0  0  0  0  0  0  0  0  0  0  0  0  # atno 4300 bound_to 2456
    2.1864   -7.4310    5.3466 LP  0  0  0  0  0  0  0  0  0  0  0  0  # atno 4301 bound_to 2510
    2.8324   -8.6078    4.4168 LP  0  0  0  0  0  0  0  0  0  0  0  0  # atno 4302 bound_to 2510
   -3.3246  -16.8547   14.6705 LP  0  0  0  0  0  0  0  0  0  0  0  0  # atno 4306 bound_to 3712
   -3.3513  -17.0597   13.0506 LP  0  0  0  0  0  0  0  0  0  0  0  0  # atno 4307 bound_to 3712
    1.9830  -19.6348    8.3315 LP  0  0  0  0  0  0  0  0  0  0  0  0  # atno 4314 bound_to 3832
    3.1187  -20.7665    8.6416 LP  0  0  0  0  0  0  0  0  0  0  0  0  # atno 4315 bound_to 3832
   -4.8812  -23.1278   10.0783 LP  0  0  0  0  0  0  0  0  0  0  0  0  # atno 4318 bound_to 3762
   -5.3016  -21.9389   11.1158 LP  0  0  0  0  0  0  0  0  0  0  0  0  # atno 4319 bound_to 3762
   -5.5088   -5.2055    8.4675 LP  0  0  0  0  0  0  0  0  0  0  0  0  # atno 4320 bound_to 2467
   -4.0617   -4.8131    7.8205 LP  0  0  0  0  0  0  0  0  0  0  0  0  # atno 4321 bound_to 2467

> <Gold.Score>
     Score     S(PLP)   S(hbond)     S(cho)   S(metal)  DE(clash)   DE(tors)     intcor
     33.82     -26.07       2.00       1.00       0.00       0.00       0.62       0.00

> <Gold.PLP.Fitness>
33.8232

> <Gold.PLP.PLP>
-26.0656

> <Gold.PLP.part.hbond>
-2.0000

> <Gold.PLP.part.metal>
0.0000

> <Gold.PLP.part.buried>
-4.6335

> <Gold.PLP.part.nonpolar>
-20.1161

> <Gold.PLP.part.repulsive>
0.1324

> <Gold.PLP.ligand.clash>
0.0000

> <Gold.PLP.ligand.torsion>
0.6227

> <Gold.PLP.Chemscore.Hbond>
2.0000

> <Gold.PLP.Chemscore.CHOScore>
1.0000

> <Gold.PLP.Chemscore.Metal>
0.0000

> <Gold.Chemscore.Hbonds>
donor molecule, donor type, donor heavy atom, donor atom, acceptor molecule, acceptor atom, score
      P1  H  2305  2313       L1    10  1.00
      P1  H  3832  3841       L1     1  1.00
      L1  C     8    16       P1  1227  1.00

> <Gold.PLP.Chemscore.Internal.Correction>
0.0030

