#       Name:                EN300-307464_i001
#       Creating user name   fsindt
#       Creation time:       Tue Feb 28 18:57:07 2023


#       File generated by GOLD software.
#

@<TRIPOS>MOLECULE
EN300-307464_i001|acide_2|mol2|6586|dock11
    18    18     1
SMALL
USER_CHARGES


@<TRIPOS>ATOM
      1 O1          -0.1003 -10.9371   7.8117 O.co2          1 <1>               -1.0000
      2 C2           0.1624 -11.6039   8.8036 C.2            1 <1>                0.0000
      3 O3           1.1045 -12.3846   8.7841 O.co2          1 <1>                0.0000
      4 C4          -0.6484 -11.4629  10.0181 C.2            1 <1>                0.0000
      5 C5          -0.7496 -12.4798  10.8734 C.2            1 <1>                0.0000
      6 C6          -1.3668 -10.1682  10.2984 C.3            1 <1>                0.0000
      7 N7          -2.7989 -10.3388  10.0412 N.pl3          1 <1>                0.0000
      8 C8          -3.5238 -11.4872  10.2124 C.2            1 <1>                0.0000
      9 C9          -4.7925 -11.2032   9.8610 C.2            1 <1>                0.0000
     10 N10         -4.8408  -9.9165   9.4855 N.2            1 <1>                0.0000
     11 C11         -3.6516  -9.3908   9.5965 C.2            1 <1>                0.0000
     12 H12         -1.3465 -12.3760  11.7675 H              1 <1>                0.0000
     13 H13         -0.2347 -13.4077  10.6725 H              1 <1>                0.0000
     14 H14         -1.2157  -9.8872  11.3407 H              1 <1>                0.0000
     15 H15         -0.9718  -9.3859   9.6503 H              1 <1>                0.0000
     16 H16         -3.1500 -12.4384  10.5615 H              1 <1>                0.0000
     17 H17         -5.6249 -11.8909   9.8786 H              1 <1>                0.0000
     18 H18         -3.3910  -8.3688   9.3639 H              1 <1>                0.0000
@<TRIPOS>BOND
    1    1    2 ar    
    2    2    3 ar    
    3    2    4 1     
    4    4    5 2     
    5    4    6 1     
    6    5   12 1     
    7    5   13 1     
    8    6    7 1     
    9    6   14 1     
   10    6   15 1     
   11    7    8 1     
   12    7   11 1     
   13    8    9 2     
   14    8   16 1     
   15    9   10 1     
   16    9   17 1     
   17   10   11 2     
   18   11   18 1     
@<TRIPOS>SUBSTRUCTURE
      1 ****           1
@<TRIPOS>COMMENT
> <Gold.Version>
2022.2.0

> <Gold.Id.Protein>
3pbl|protein|mol2

> <Gold.Protein.RotatedTorsions>
[ 1303 1298 1297 1294 ] final  141.36 input  179.99 | X-H torsion
[ 2461 2456 2455 2452 ] final -135.83 input   30.03 | X-H torsion
[ 2515 2510 2509 2506 ] final  -42.72 input  -89.99 | X-H torsion
[ 3721 3712 3711 3710 ] final  -44.75 input -179.91 | X-H torsion
[ 3841 3832 3831 3830 ] final   17.72 input -179.91 | X-H torsion
[ 3767 3762 3761 3758 ] final  130.48 input  -89.99 | X-H torsion
[ 2472 2467 2466 2463 ] final   58.25 input  -89.97 | X-H torsion

> <Gold.Protein.ActiveResidues>
 VAL82   VAL86   LEU89   PHE106  VAL107  ASP110  VAL111  MET112  CYS114  THR115 
 CYS181  SER182  ILE183  PHE188  VAL189  ILE190  SER192  SER193  SER196  TRP342 
 PHE345  PHE346  HIS349  VAL350  TYR365  THR369  GLY372  TYR373 

> <Gold.Protein.RotatedAtoms>
    4.8778   -9.4504    4.9201 H   0  0  0  0  0  0  0  0  0  0  0  0  # atno 1303 bound_to 1298
    0.7712   -9.2561    8.2030 H   0  0  0  0  0  0  0  0  0  0  0  0  # atno 2461 bound_to 2456
   -4.6144   -4.8164    7.6587 H   0  0  0  0  0  0  0  0  0  0  0  0  # atno 2472 bound_to 2467
    2.7758   -8.2223    4.3545 H   0  0  0  0  0  0  0  0  0  0  0  0  # atno 2515 bound_to 2510
   -2.6927  -17.5268   14.6980 H   0  0  0  0  0  0  0  0  0  0  0  0  # atno 3721 bound_to 3712
   -3.9176  -23.1010   11.0470 H   0  0  0  0  0  0  0  0  0  0  0  0  # atno 3767 bound_to 3762
    1.9164  -20.6752    9.6160 H   0  0  0  0  0  0  0  0  0  0  0  0  # atno 3841 bound_to 3832
    3.5438  -10.1106    4.2486 LP  0  0  0  0  0  0  0  0  0  0  0  0  # atno 4297 bound_to 1298
    3.9403   -8.5603    3.9226 LP  0  0  0  0  0  0  0  0  0  0  0  0  # atno 4298 bound_to 1298
    2.1610   -8.4574    7.8903 LP  0  0  0  0  0  0  0  0  0  0  0  0  # atno 4299 bound_to 2456
    0.8054   -8.0949    7.0550 LP  0  0  0  0  0  0  0  0  0  0  0  0  # atno 4300 bound_to 2456
    2.4440   -9.1835    5.6319 LP  0  0  0  0  0  0  0  0  0  0  0  0  # atno 4301 bound_to 2510
    2.0768   -7.5934    5.6893 LP  0  0  0  0  0  0  0  0  0  0  0  0  # atno 4302 bound_to 2510
   -3.5671  -16.5751   13.7454 LP  0  0  0  0  0  0  0  0  0  0  0  0  # atno 4306 bound_to 3712
   -2.8517  -17.9162   13.1486 LP  0  0  0  0  0  0  0  0  0  0  0  0  # atno 4307 bound_to 3712
    1.8877  -19.6369    8.3924 LP  0  0  0  0  0  0  0  0  0  0  0  0  # atno 4314 bound_to 3832
    3.1279  -20.6854    8.5633 LP  0  0  0  0  0  0  0  0  0  0  0  0  # atno 4315 bound_to 3832
   -5.2193  -22.8438   10.0950 LP  0  0  0  0  0  0  0  0  0  0  0  0  # atno 4318 bound_to 3762
   -4.9902  -21.9304   11.4291 LP  0  0  0  0  0  0  0  0  0  0  0  0  # atno 4319 bound_to 3762
   -3.7399   -5.1971    8.9841 LP  0  0  0  0  0  0  0  0  0  0  0  0  # atno 4320 bound_to 2467
   -5.3626   -5.3800    8.9962 LP  0  0  0  0  0  0  0  0  0  0  0  0  # atno 4321 bound_to 2467

> <Gold.Score>
     Score     S(PLP)   S(hbond)     S(cho)   S(metal)  DE(clash)   DE(tors)     intcor
     43.55     -39.26       1.00       1.00       0.00       0.00       0.85       0.00

> <Gold.PLP.Fitness>
43.5490

> <Gold.PLP.PLP>
-39.2560

> <Gold.PLP.part.hbond>
-1.0000

> <Gold.PLP.part.metal>
0.0000

> <Gold.PLP.part.buried>
-1.1951

> <Gold.PLP.part.nonpolar>
-37.7840

> <Gold.PLP.part.repulsive>
0.1356

> <Gold.PLP.ligand.clash>
0.0000

> <Gold.PLP.ligand.torsion>
0.8550

> <Gold.PLP.Chemscore.Hbond>
1.0000

> <Gold.PLP.Chemscore.CHOScore>
1.0000

> <Gold.PLP.Chemscore.Metal>
0.0000

> <Gold.Chemscore.Hbonds>
donor molecule, donor type, donor heavy atom, donor atom, acceptor molecule, acceptor atom, score
      P1  H  2456  2461       L1     1  1.00
      L1  C    11    18       P1  2398  1.00

> <Gold.PLP.Chemscore.Internal.Correction>
0.0030

