#       Name:                EN300-307464_i001
#       Creating user name   fsindt
#       Creation time:       Tue Feb 28 18:57:04 2023


#       File generated by GOLD software.
#

@<TRIPOS>MOLECULE
EN300-307464_i001|acide_2|mol2|6586|dock6
    18    18     1
SMALL
USER_CHARGES


@<TRIPOS>ATOM
      1 O1           0.8385 -10.8337   8.8967 O.co2          1 <1>               -1.0000
      2 C2           0.1860 -11.4936   9.6944 C.2            1 <1>                0.0000
      3 O3           0.4735 -12.6654   9.8988 O.co2          1 <1>                0.0000
      4 C4          -0.9370 -10.8783  10.4102 C.2            1 <1>                0.0000
      5 C5          -1.1516 -11.1726  11.6920 C.2            1 <1>                0.0000
      6 C6          -1.8478  -9.9133   9.6960 C.3            1 <1>                0.0000
      7 N7          -3.2253 -10.4090   9.7525 N.pl3          1 <1>                0.0000
      8 C8          -3.6539 -11.6589   9.3951 C.2            1 <1>                0.0000
      9 C9          -4.9842 -11.6888   9.6032 C.2            1 <1>                0.0000
     10 N10         -5.3575 -10.4899  10.0747 N.2            1 <1>                0.0000
     11 C11         -4.3082  -9.7202  10.1723 C.2            1 <1>                0.0000
     12 H12         -1.9783 -10.7197  12.2190 H              1 <1>                0.0000
     13 H13         -0.4988 -11.8642  12.2039 H              1 <1>                0.0000
     14 H14         -1.7929  -8.9373  10.1781 H              1 <1>                0.0000
     15 H15         -1.5367  -9.8225   8.6553 H              1 <1>                0.0000
     16 H16         -3.0430 -12.4657   9.0181 H              1 <1>                0.0000
     17 H17         -5.6360 -12.5306   9.4222 H              1 <1>                0.0000
     18 H18         -4.3074  -8.6989  10.5235 H              1 <1>                0.0000
@<TRIPOS>BOND
    1    1    2 ar    
    2    2    3 ar    
    3    2    4 1     
    4    4    5 2     
    5    4    6 1     
    6    5   12 1     
    7    5   13 1     
    8    6    7 1     
    9    6   14 1     
   10    6   15 1     
   11    7    8 1     
   12    7   11 1     
   13    8    9 2     
   14    8   16 1     
   15    9   10 1     
   16    9   17 1     
   17   10   11 2     
   18   11   18 1     
@<TRIPOS>SUBSTRUCTURE
      1 ****           1
@<TRIPOS>COMMENT
> <Gold.Version>
2022.2.0

> <Gold.Id.Protein>
3pbl|protein|mol2

> <Gold.Protein.RotatedTorsions>
[ 1303 1298 1297 1294 ] final   17.04 input  179.99 | X-H torsion
[ 2461 2456 2455 2452 ] final -171.73 input   30.03 | X-H torsion
[ 2515 2510 2509 2506 ] final -115.32 input  -89.99 | X-H torsion
[ 3721 3712 3711 3710 ] final   -0.57 input -179.91 | X-H torsion
[ 3841 3832 3831 3830 ] final  -20.18 input -179.91 | X-H torsion
[ 3767 3762 3761 3758 ] final  165.96 input  -89.99 | X-H torsion
[ 2472 2467 2466 2463 ] final  177.77 input  -89.97 | X-H torsion

> <Gold.Protein.ActiveResidues>
 VAL82   VAL86   LEU89   PHE106  VAL107  ASP110  VAL111  MET112  CYS114  THR115 
 CYS181  SER182  ILE183  PHE188  VAL189  ILE190  SER192  SER193  SER196  TRP342 
 PHE345  PHE346  HIS349  VAL350  TYR365  THR369  GLY372  TYR373 

> <Gold.Protein.RotatedAtoms>
    3.5045  -10.0694    4.2060 H   0  0  0  0  0  0  0  0  0  0  0  0  # atno 1303 bound_to 1298
    1.3203   -9.2547    8.3934 H   0  0  0  0  0  0  0  0  0  0  0  0  # atno 2461 bound_to 2456
   -5.3667   -5.3789    8.9897 H   0  0  0  0  0  0  0  0  0  0  0  0  # atno 2472 bound_to 2467
    2.7372   -9.1756    4.9331 H   0  0  0  0  0  0  0  0  0  0  0  0  # atno 2515 bound_to 2510
   -2.4881  -17.9533   14.2502 H   0  0  0  0  0  0  0  0  0  0  0  0  # atno 3721 bound_to 3712
   -3.9877  -22.7064   11.4588 H   0  0  0  0  0  0  0  0  0  0  0  0  # atno 3767 bound_to 3762
    1.6035  -20.2480    9.4273 H   0  0  0  0  0  0  0  0  0  0  0  0  # atno 3841 bound_to 3832
    3.9990   -8.5339    3.9531 LP  0  0  0  0  0  0  0  0  0  0  0  0  # atno 4297 bound_to 1298
    4.8589   -9.5177    4.9325 LP  0  0  0  0  0  0  0  0  0  0  0  0  # atno 4298 bound_to 1298
    1.9988   -8.0920    7.4686 LP  0  0  0  0  0  0  0  0  0  0  0  0  # atno 4299 bound_to 2456
    0.4187   -8.4617    7.2863 LP  0  0  0  0  0  0  0  0  0  0  0  0  # atno 4300 bound_to 2456
    2.0507   -8.2408    6.0823 LP  0  0  0  0  0  0  0  0  0  0  0  0  # atno 4301 bound_to 2510
    2.5087   -7.5822    4.6600 LP  0  0  0  0  0  0  0  0  0  0  0  0  # atno 4302 bound_to 2510
   -3.4450  -16.6792   14.4473 LP  0  0  0  0  0  0  0  0  0  0  0  0  # atno 4306 bound_to 3712
   -3.2100  -17.3196   12.9637 LP  0  0  0  0  0  0  0  0  0  0  0  0  # atno 4307 bound_to 3712
    2.4488  -19.7585    8.1538 LP  0  0  0  0  0  0  0  0  0  0  0  0  # atno 4314 bound_to 3832
    2.9283  -21.0573    9.0198 LP  0  0  0  0  0  0  0  0  0  0  0  0  # atno 4315 bound_to 3832
   -4.7653  -23.1956   10.1087 LP  0  0  0  0  0  0  0  0  0  0  0  0  # atno 4318 bound_to 3762
   -5.3741  -21.9731   11.0038 LP  0  0  0  0  0  0  0  0  0  0  0  0  # atno 4319 bound_to 3762
   -4.6068   -4.8149    7.6589 LP  0  0  0  0  0  0  0  0  0  0  0  0  # atno 4320 bound_to 2467
   -3.7436   -5.1998    8.9906 LP  0  0  0  0  0  0  0  0  0  0  0  0  # atno 4321 bound_to 2467

> <Gold.Score>
     Score     S(PLP)   S(hbond)     S(cho)   S(metal)  DE(clash)   DE(tors)     intcor
     46.94     -42.26       1.00       1.00       0.00       0.00       0.66       0.00

> <Gold.PLP.Fitness>
46.9441

> <Gold.PLP.PLP>
-42.2594

> <Gold.PLP.part.hbond>
-1.1982

> <Gold.PLP.part.metal>
0.0000

> <Gold.PLP.part.buried>
-3.5332

> <Gold.PLP.part.nonpolar>
-38.9338

> <Gold.PLP.part.repulsive>
0.1583

> <Gold.PLP.ligand.clash>
0.0000

> <Gold.PLP.ligand.torsion>
0.6591

> <Gold.PLP.Chemscore.Hbond>
1.0000

> <Gold.PLP.Chemscore.CHOScore>
1.0000

> <Gold.PLP.Chemscore.Metal>
0.0000

> <Gold.Chemscore.Hbonds>
donor molecule, donor type, donor heavy atom, donor atom, acceptor molecule, acceptor atom, score
      P1  H  2456  2461       L1     1  1.00
      L1  C    11    18       P1  2398  1.00

> <Gold.PLP.Chemscore.Internal.Correction>
0.0030

