#       Name:                EN300-307464_i001
#       Creating user name   fsindt
#       Creation time:       Tue Feb 28 18:57:07 2023


#       File generated by GOLD software.
#

@<TRIPOS>MOLECULE
EN300-307464_i001|acide_2|mol2|6586|dock12
    18    18     1
SMALL
USER_CHARGES


@<TRIPOS>ATOM
      1 O1           0.7123 -15.7041  14.3782 O.co2          1 <1>               -1.0000
      2 C2          -0.0483 -16.5029  13.8482 C.2            1 <1>                0.0000
      3 O3          -0.7549 -17.2254  14.5383 O.co2          1 <1>                0.0000
      4 C4          -0.1176 -16.5901  12.3854 C.2            1 <1>                0.0000
      5 C5           0.5065 -15.6839  11.6336 C.2            1 <1>                0.0000
      6 C6          -0.8943 -17.7045  11.7329 C.3            1 <1>                0.0000
      7 N7          -0.3561 -18.9953  12.1691 N.pl3          1 <1>                0.0000
      8 C8           0.7026 -19.6630  11.6149 C.2            1 <1>                0.0000
      9 C9           0.8571 -20.8008  12.3188 C.2            1 <1>                0.0000
     10 N10         -0.0815 -20.8270  13.2765 N.2            1 <1>                0.0000
     11 C11         -0.8082 -19.7459  13.1966 C.2            1 <1>                0.0000
     12 H12          0.4555 -15.7480  10.5568 H              1 <1>                0.0000
     13 H13          1.0631 -14.8852  12.1013 H              1 <1>                0.0000
     14 H14         -1.9434 -17.6325  12.0197 H              1 <1>                0.0000
     15 H15         -0.8073 -17.6220  10.6494 H              1 <1>                0.0000
     16 H16          1.2988 -19.3399  10.7744 H              1 <1>                0.0000
     17 H17          1.6058 -21.5590  12.1429 H              1 <1>                0.0000
     18 H18         -1.6383 -19.4966  13.8408 H              1 <1>                0.0000
@<TRIPOS>BOND
    1    1    2 ar    
    2    2    3 ar    
    3    2    4 1     
    4    4    5 2     
    5    4    6 1     
    6    5   12 1     
    7    5   13 1     
    8    6    7 1     
    9    6   14 1     
   10    6   15 1     
   11    7    8 1     
   12    7   11 1     
   13    8    9 2     
   14    8   16 1     
   15    9   10 1     
   16    9   17 1     
   17   10   11 2     
   18   11   18 1     
@<TRIPOS>SUBSTRUCTURE
      1 ****           1
@<TRIPOS>COMMENT
> <Gold.Version>
2022.2.0

> <Gold.Id.Protein>
3pbl|protein|mol2

> <Gold.Protein.RotatedTorsions>
[ 1303 1298 1297 1294 ] final  125.90 input  179.99 | X-H torsion
[ 2461 2456 2455 2452 ] final -102.85 input   30.03 | X-H torsion
[ 2515 2510 2509 2506 ] final  127.62 input  -89.99 | X-H torsion
[ 3721 3712 3711 3710 ] final  -98.86 input -179.91 | X-H torsion
[ 3841 3832 3831 3830 ] final  157.40 input -179.91 | X-H torsion
[ 3767 3762 3761 3758 ] final  -33.35 input  -89.99 | X-H torsion
[ 2472 2467 2466 2463 ] final   74.43 input  -89.97 | X-H torsion

> <Gold.Protein.ActiveResidues>
 VAL82   VAL86   LEU89   PHE106  VAL107  ASP110  VAL111  MET112  CYS114  THR115 
 CYS181  SER182  ILE183  PHE188  VAL189  ILE190  SER192  SER193  SER196  TRP342 
 PHE345  PHE346  HIS349  VAL350  TYR365  THR369  GLY372  TYR373 

> <Gold.Protein.RotatedAtoms>
    4.7894   -9.6861    4.9502 H   0  0  0  0  0  0  0  0  0  0  0  0  # atno 1303 bound_to 1298
    0.4215   -9.0368    7.8620 H   0  0  0  0  0  0  0  0  0  0  0  0  # atno 2461 bound_to 2456
   -4.8739   -4.8583    7.6958 H   0  0  0  0  0  0  0  0  0  0  0  0  # atno 2472 bound_to 2467
    2.0582   -8.2881    6.0890 H   0  0  0  0  0  0  0  0  0  0  0  0  # atno 2515 bound_to 2510
   -3.0877  -16.8492   14.6220 H   0  0  0  0  0  0  0  0  0  0  0  0  # atno 3721 bound_to 3712
   -5.5057  -22.3141   10.4595 H   0  0  0  0  0  0  0  0  0  0  0  0  # atno 3767 bound_to 3762
    3.1012  -20.3178    8.5624 H   0  0  0  0  0  0  0  0  0  0  0  0  # atno 3841 bound_to 3832
    3.4204   -9.9469    4.0993 LP  0  0  0  0  0  0  0  0  0  0  0  0  # atno 4297 bound_to 1298
    4.1521   -8.4882    4.0418 LP  0  0  0  0  0  0  0  0  0  0  0  0  # atno 4298 bound_to 1298
    2.0028   -8.8457    8.2229 LP  0  0  0  0  0  0  0  0  0  0  0  0  # atno 4299 bound_to 2456
    1.3132   -7.9258    7.0633 LP  0  0  0  0  0  0  0  0  0  0  0  0  # atno 4300 bound_to 2456
    2.4883   -7.5556    4.6946 LP  0  0  0  0  0  0  0  0  0  0  0  0  # atno 4301 bound_to 2510
    2.7503   -9.1554    4.8912 LP  0  0  0  0  0  0  0  0  0  0  0  0  # atno 4302 bound_to 2510
   -3.3527  -17.0569   13.0522 LP  0  0  0  0  0  0  0  0  0  0  0  0  # atno 4306 bound_to 3712
   -2.6101  -18.2168   13.9295 LP  0  0  0  0  0  0  0  0  0  0  0  0  # atno 4307 bound_to 3712
    2.0334  -21.0156    9.5366 LP  0  0  0  0  0  0  0  0  0  0  0  0  # atno 4314 bound_to 3832
    1.6136  -19.7196    8.6361 LP  0  0  0  0  0  0  0  0  0  0  0  0  # atno 4315 bound_to 3832
   -4.3918  -22.2269   11.6505 LP  0  0  0  0  0  0  0  0  0  0  0  0  # atno 4318 bound_to 3762
   -4.2302  -23.3339   10.4610 LP  0  0  0  0  0  0  0  0  0  0  0  0  # atno 4319 bound_to 3762
   -3.6525   -5.1037    8.7515 LP  0  0  0  0  0  0  0  0  0  0  0  0  # atno 4320 bound_to 2467
   -5.1905   -5.4315    9.1917 LP  0  0  0  0  0  0  0  0  0  0  0  0  # atno 4321 bound_to 2467

> <Gold.Score>
     Score     S(PLP)   S(hbond)     S(cho)   S(metal)  DE(clash)   DE(tors)     intcor
     36.46     -25.26       1.00       3.00       0.00       0.00       0.40       0.00

> <Gold.PLP.Fitness>
36.4629

> <Gold.PLP.PLP>
-25.2556

> <Gold.PLP.part.hbond>
-2.0000

> <Gold.PLP.part.metal>
0.0000

> <Gold.PLP.part.buried>
-3.3947

> <Gold.PLP.part.nonpolar>
-20.5491

> <Gold.PLP.part.repulsive>
0.0680

> <Gold.PLP.ligand.clash>
0.0000

> <Gold.PLP.ligand.torsion>
0.3967

> <Gold.PLP.Chemscore.Hbond>
1.0000

> <Gold.PLP.Chemscore.CHOScore>
2.9992

> <Gold.PLP.Chemscore.Metal>
0.0000

> <Gold.Chemscore.Hbonds>
donor molecule, donor type, donor heavy atom, donor atom, acceptor molecule, acceptor atom, score
      P1  H  2305  2313       L1     1  1.00
      L1  C     8    16       P1  1227  1.00
      L1  C     8    16       P1  3832  1.00
      L1  C    11    18       P1  3712  1.00

> <Gold.PLP.Chemscore.Internal.Correction>
0.0030

