#       Name:                EN300-307464_i001
#       Creating user name   fsindt
#       Creation time:       Tue Feb 28 18:57:02 2023


#       File generated by GOLD software.
#

@<TRIPOS>MOLECULE
EN300-307464_i001|acide_2|mol2|6586|dock3
    18    18     1
SMALL
USER_CHARGES


@<TRIPOS>ATOM
      1 O1           0.6326 -12.8149   7.3080 O.co2          1 <1>               -1.0000
      2 C2           0.2943 -11.9777   8.1340 C.2            1 <1>                0.0000
      3 O3           0.1527 -10.8095   7.7985 O.co2          1 <1>                0.0000
      4 C4           0.0525 -12.3758   9.5252 C.2            1 <1>                0.0000
      5 C5           0.2227 -13.6449   9.8942 C.2            1 <1>                0.0000
      6 C6          -0.3882 -11.3496  10.5369 C.3            1 <1>                0.0000
      7 N7          -1.7237 -10.8601  10.1860 N.pl3          1 <1>                0.0000
      8 C8          -2.9093 -11.5097  10.4010 C.2            1 <1>                0.0000
      9 C9          -3.8836 -10.7086   9.9292 C.2            1 <1>                0.0000
     10 N10         -3.3087  -9.6001   9.4397 N.2            1 <1>                0.0000
     11 C11         -2.0155  -9.6813   9.5954 C.2            1 <1>                0.0000
     12 H12          0.0447 -13.9379  10.9183 H              1 <1>                0.0000
     13 H13          0.5385 -14.3804   9.1691 H              1 <1>                0.0000
     14 H14         -0.4164 -11.8043  11.5270 H              1 <1>                0.0000
     15 H15          0.3149 -10.5166  10.5394 H              1 <1>                0.0000
     16 H16         -3.0384 -12.4788  10.8600 H              1 <1>                0.0000
     17 H17         -4.9423 -10.9214   9.9429 H              1 <1>                0.0000
     18 H18         -1.2972  -8.9330   9.2948 H              1 <1>                0.0000
@<TRIPOS>BOND
    1    1    2 ar    
    2    2    3 ar    
    3    2    4 1     
    4    4    5 2     
    5    4    6 1     
    6    5   12 1     
    7    5   13 1     
    8    6    7 1     
    9    6   14 1     
   10    6   15 1     
   11    7    8 1     
   12    7   11 1     
   13    8    9 2     
   14    8   16 1     
   15    9   10 1     
   16    9   17 1     
   17   10   11 2     
   18   11   18 1     
@<TRIPOS>SUBSTRUCTURE
      1 ****           1
@<TRIPOS>COMMENT
> <Gold.Version>
2022.2.0

> <Gold.Id.Protein>
3pbl|protein|mol2

> <Gold.Protein.RotatedTorsions>
[ 1303 1298 1297 1294 ] final  159.54 input  179.99 | X-H torsion
[ 2461 2456 2455 2452 ] final -129.62 input   30.03 | X-H torsion
[ 2515 2510 2509 2506 ] final   92.36 input  -89.99 | X-H torsion
[ 3721 3712 3711 3710 ] final   77.96 input -179.91 | X-H torsion
[ 3841 3832 3831 3830 ] final   93.31 input -179.91 | X-H torsion
[ 3767 3762 3761 3758 ] final -157.44 input  -89.99 | X-H torsion
[ 2472 2467 2466 2463 ] final  -58.21 input  -89.97 | X-H torsion

> <Gold.Protein.ActiveResidues>
 VAL82   VAL86   LEU89   PHE106  VAL107  ASP110  VAL111  MET112  CYS114  THR115 
 CYS181  SER182  ILE183  PHE188  VAL189  ILE190  SER192  SER193  SER196  TRP342 
 PHE345  PHE346  HIS349  VAL350  TYR365  THR369  GLY372  TYR373 

> <Gold.Protein.RotatedAtoms>
    4.9114   -9.1673    4.8336 H   0  0  0  0  0  0  0  0  0  0  0  0  # atno 1303 bound_to 1298
    0.6893   -9.2296    8.1480 H   0  0  0  0  0  0  0  0  0  0  0  0  # atno 2461 bound_to 2456
   -3.7147   -5.1776    8.9354 H   0  0  0  0  0  0  0  0  0  0  0  0  # atno 2472 bound_to 2467
    2.0396   -7.7633    5.8650 H   0  0  0  0  0  0  0  0  0  0  0  0  # atno 2515 bound_to 2510
   -2.6994  -17.7485   13.1940 H   0  0  0  0  0  0  0  0  0  0  0  0  # atno 3721 bound_to 3712
   -4.3395  -22.2694   11.6483 H   0  0  0  0  0  0  0  0  0  0  0  0  # atno 3767 bound_to 3762
    2.8768  -20.9080    9.2298 H   0  0  0  0  0  0  0  0  0  0  0  0  # atno 3841 bound_to 3832
    3.7416  -10.2342    4.4341 LP  0  0  0  0  0  0  0  0  0  0  0  0  # atno 4297 bound_to 1298
    3.7088   -8.7199    3.8237 LP  0  0  0  0  0  0  0  0  0  0  0  0  # atno 4298 bound_to 1298
    2.1535   -8.5307    7.9609 LP  0  0  0  0  0  0  0  0  0  0  0  0  # atno 4299 bound_to 2456
    0.8948   -8.0480    7.0393 LP  0  0  0  0  0  0  0  0  0  0  0  0  # atno 4300 bound_to 2456
    2.7088   -7.9874    4.3927 LP  0  0  0  0  0  0  0  0  0  0  0  0  # atno 4301 bound_to 2510
    2.5485   -9.2487    5.4173 LP  0  0  0  0  0  0  0  0  0  0  0  0  # atno 4302 bound_to 2510
   -2.8445  -17.6740   14.7913 LP  0  0  0  0  0  0  0  0  0  0  0  0  # atno 4306 bound_to 3712
   -3.5667  -16.5613   13.8390 LP  0  0  0  0  0  0  0  0  0  0  0  0  # atno 4307 bound_to 3712
    1.4052  -20.2679    9.2561 LP  0  0  0  0  0  0  0  0  0  0  0  0  # atno 4314 bound_to 3832
    2.5011  -19.7856    8.1457 LP  0  0  0  0  0  0  0  0  0  0  0  0  # atno 4315 bound_to 3832
   -4.2772  -23.3357   10.4130 LP  0  0  0  0  0  0  0  0  0  0  0  0  # atno 4318 bound_to 3762
   -5.5105  -22.2698   10.5101 LP  0  0  0  0  0  0  0  0  0  0  0  0  # atno 4319 bound_to 3762
   -5.3298   -5.3931    9.0428 LP  0  0  0  0  0  0  0  0  0  0  0  0  # atno 4320 bound_to 2467
   -4.6722   -4.8229    7.6611 LP  0  0  0  0  0  0  0  0  0  0  0  0  # atno 4321 bound_to 2467

> <Gold.Score>
     Score     S(PLP)   S(hbond)     S(cho)   S(metal)  DE(clash)   DE(tors)     intcor
     41.23     -38.77       1.00       0.00       0.00       0.00       0.27       0.00

> <Gold.PLP.Fitness>
41.2302

> <Gold.PLP.PLP>
-38.7670

> <Gold.PLP.part.hbond>
-1.0000

> <Gold.PLP.part.metal>
0.0000

> <Gold.PLP.part.buried>
-5.0439

> <Gold.PLP.part.nonpolar>
-34.2700

> <Gold.PLP.part.repulsive>
0.1258

> <Gold.PLP.ligand.clash>
0.0000

> <Gold.PLP.ligand.torsion>
0.2701

> <Gold.PLP.Chemscore.Hbond>
1.0000

> <Gold.PLP.Chemscore.CHOScore>
0.0000

> <Gold.PLP.Chemscore.Metal>
0.0000

> <Gold.Chemscore.Hbonds>
donor molecule, donor type, donor heavy atom, donor atom, acceptor molecule, acceptor atom, score
      P1  H  2456  2461       L1     3  1.00

> <Gold.PLP.Chemscore.Internal.Correction>
0.0034

