#       Name:                EN300-307464_i001
#       Creating user name   fsindt
#       Creation time:       Tue Feb 28 18:57:09 2023


#       File generated by GOLD software.
#

@<TRIPOS>MOLECULE
EN300-307464_i001|acide_2|mol2|6586|dock14
    18    18     1
SMALL
USER_CHARGES


@<TRIPOS>ATOM
      1 O1          -0.1951 -12.7975   8.7173 O.co2          1 <1>               -1.0000
      2 C2           0.0223 -11.6872   9.1838 C.2            1 <1>                0.0000
      3 O3           0.8819 -10.9723   8.6865 O.co2          1 <1>                0.0000
      4 C4          -0.7518 -11.2110  10.3353 C.2            1 <1>                0.0000
      5 C5          -0.3685 -10.1144  10.9883 C.2            1 <1>                0.0000
      6 C6          -1.9805 -11.9617  10.7798 C.3            1 <1>                0.0000
      7 N7          -3.1784 -11.2337  10.3540 N.pl3          1 <1>                0.0000
      8 C8          -4.3312 -11.7838   9.8620 C.2            1 <1>                0.0000
      9 C9          -5.1684 -10.7625   9.5980 C.2            1 <1>                0.0000
     10 N10         -4.5438  -9.6200   9.9201 N.2            1 <1>                0.0000
     11 C11         -3.3536  -9.8949  10.3791 C.2            1 <1>                0.0000
     12 H12         -0.9383  -9.7638  11.8360 H              1 <1>                0.0000
     13 H13          0.5121  -9.5764  10.6697 H              1 <1>                0.0000
     14 H14         -1.9809 -12.9554  10.3320 H              1 <1>                0.0000
     15 H15         -1.9776 -12.0527  11.8661 H              1 <1>                0.0000
     16 H16         -4.5307 -12.8347   9.7134 H              1 <1>                0.0000
     17 H17         -6.1676 -10.8484   9.1973 H              1 <1>                0.0000
     18 H18         -2.6264  -9.1711  10.7161 H              1 <1>                0.0000
@<TRIPOS>BOND
    1    1    2 ar    
    2    2    3 ar    
    3    2    4 1     
    4    4    5 2     
    5    4    6 1     
    6    5   12 1     
    7    5   13 1     
    8    6    7 1     
    9    6   14 1     
   10    6   15 1     
   11    7    8 1     
   12    7   11 1     
   13    8    9 2     
   14    8   16 1     
   15    9   10 1     
   16    9   17 1     
   17   10   11 2     
   18   11   18 1     
@<TRIPOS>SUBSTRUCTURE
      1 ****           1
@<TRIPOS>COMMENT
> <Gold.Version>
2022.2.0

> <Gold.Id.Protein>
3pbl|protein|mol2

> <Gold.Protein.RotatedTorsions>
[ 1303 1298 1297 1294 ] final  114.03 input  179.99 | X-H torsion
[ 2461 2456 2455 2452 ] final -147.85 input   30.03 | X-H torsion
[ 2515 2510 2509 2506 ] final  -82.03 input  -89.99 | X-H torsion
[ 3721 3712 3711 3710 ] final   36.25 input -179.91 | X-H torsion
[ 3841 3832 3831 3830 ] final  -60.10 input -179.91 | X-H torsion
[ 3767 3762 3761 3758 ] final    5.83 input  -89.99 | X-H torsion
[ 2472 2467 2466 2463 ] final -123.64 input  -89.97 | X-H torsion

> <Gold.Protein.ActiveResidues>
 VAL82   VAL86   LEU89   PHE106  VAL107  ASP110  VAL111  MET112  CYS114  THR115 
 CYS181  SER182  ILE183  PHE188  VAL189  ILE190  SER192  SER193  SER196  TRP342 
 PHE345  PHE346  HIS349  VAL350  TYR365  THR369  GLY372  TYR373 

> <Gold.Protein.RotatedAtoms>
    4.6882   -9.8527    4.9445 H   0  0  0  0  0  0  0  0  0  0  0  0  # atno 1303 bound_to 1298
    0.9445   -9.2853    8.2928 H   0  0  0  0  0  0  0  0  0  0  0  0  # atno 2461 bound_to 2456
   -4.5610   -5.4502    9.4335 H   0  0  0  0  0  0  0  0  0  0  0  0  # atno 2472 bound_to 2467
    2.8323   -8.8287    4.5305 H   0  0  0  0  0  0  0  0  0  0  0  0  # atno 2515 bound_to 2510
   -2.4965  -18.0230   13.7076 H   0  0  0  0  0  0  0  0  0  0  0  0  # atno 3721 bound_to 3712
   -5.2676  -22.7878   10.1149 H   0  0  0  0  0  0  0  0  0  0  0  0  # atno 3767 bound_to 3762
    1.6137  -19.8109    9.0296 H   0  0  0  0  0  0  0  0  0  0  0  0  # atno 3841 bound_to 3832
    3.3596   -9.7923    3.9971 LP  0  0  0  0  0  0  0  0  0  0  0  0  # atno 4297 bound_to 1298
    4.3142   -8.4762    4.1498 LP  0  0  0  0  0  0  0  0  0  0  0  0  # atno 4298 bound_to 1298
    2.1451   -8.3210    7.7485 LP  0  0  0  0  0  0  0  0  0  0  0  0  # atno 4299 bound_to 2456
    0.6481   -8.2020    7.1070 LP  0  0  0  0  0  0  0  0  0  0  0  0  # atno 4300 bound_to 2456
    2.1857   -8.7611    6.0282 LP  0  0  0  0  0  0  0  0  0  0  0  0  # atno 4301 bound_to 2510
    2.2786   -7.4091    5.1170 LP  0  0  0  0  0  0  0  0  0  0  0  0  # atno 4302 bound_to 2510
   -3.1817  -17.0821   14.8135 LP  0  0  0  0  0  0  0  0  0  0  0  0  # atno 4306 bound_to 3712
   -3.4638  -16.8363   13.2239 LP  0  0  0  0  0  0  0  0  0  0  0  0  # atno 4307 bound_to 3712
    2.9490  -20.1746    8.2167 LP  0  0  0  0  0  0  0  0  0  0  0  0  # atno 4314 bound_to 3832
    2.4162  -21.1460    9.4164 LP  0  0  0  0  0  0  0  0  0  0  0  0  # atno 4315 bound_to 3832
   -4.9285  -21.9447   11.4717 LP  0  0  0  0  0  0  0  0  0  0  0  0  # atno 4318 bound_to 3762
   -3.9315  -23.1426   10.9842 LP  0  0  0  0  0  0  0  0  0  0  0  0  # atno 4319 bound_to 3762
   -5.3901   -5.0541    8.0837 LP  0  0  0  0  0  0  0  0  0  0  0  0  # atno 4320 bound_to 2467
   -3.7659   -4.8893    8.1221 LP  0  0  0  0  0  0  0  0  0  0  0  0  # atno 4321 bound_to 2467

> <Gold.Score>
     Score     S(PLP)   S(hbond)     S(cho)   S(metal)  DE(clash)   DE(tors)     intcor
     51.16     -43.39       1.00       1.96       0.00       0.00       0.55       0.00

> <Gold.PLP.Fitness>
51.1638

> <Gold.PLP.PLP>
-43.3887

> <Gold.PLP.part.hbond>
-1.0000

> <Gold.PLP.part.metal>
0.0000

> <Gold.PLP.part.buried>
-4.1548

> <Gold.PLP.part.nonpolar>
-38.2061

> <Gold.PLP.part.repulsive>
0.1267

> <Gold.PLP.ligand.clash>
0.0000

> <Gold.PLP.ligand.torsion>
0.5512

> <Gold.PLP.Chemscore.Hbond>
1.0000

> <Gold.PLP.Chemscore.CHOScore>
1.9581

> <Gold.PLP.Chemscore.Metal>
0.0000

> <Gold.Chemscore.Hbonds>
donor molecule, donor type, donor heavy atom, donor atom, acceptor molecule, acceptor atom, score
      P1  H  2456  2461       L1     3  1.00
      L1  C     9    17       P1  3417  1.00
      L1  C    11    18       P1  2398  0.96

> <Gold.PLP.Chemscore.Internal.Correction>
0.0030

