#       Name:                EN300-307464_i001
#       Creating user name   fsindt
#       Creation time:       Tue Feb 28 18:57:06 2023


#       File generated by GOLD software.
#

@<TRIPOS>MOLECULE
EN300-307464_i001|acide_2|mol2|6586|dock9
    18    18     1
SMALL
USER_CHARGES


@<TRIPOS>ATOM
      1 O1          -0.7007 -17.6679  14.9341 O.co2          1 <1>               -1.0000
      2 C2           0.1514 -16.8601  14.5890 C.2            1 <1>                0.0000
      3 O3          -0.1104 -15.6649  14.5707 O.co2          1 <1>                0.0000
      4 C4           1.4885 -17.3241  14.2030 C.2            1 <1>                0.0000
      5 C5           2.3003 -16.5205  13.5168 C.2            1 <1>                0.0000
      6 C6           1.9440 -18.7095  14.5825 C.3            1 <1>                0.0000
      7 N7           1.3923 -19.6816  13.6354 N.pl3          1 <1>                0.0000
      8 C8           1.4363 -19.6001  12.2698 C.2            1 <1>                0.0000
      9 C9           0.8151 -20.6961  11.7938 C.2            1 <1>                0.0000
     10 N10          0.4031 -21.4268  12.8404 N.2            1 <1>                0.0000
     11 C11          0.7505 -20.8282  13.9467 C.2            1 <1>                0.0000
     12 H12          3.2846 -16.8621  13.2327 H              1 <1>                0.0000
     13 H13          1.9738 -15.5276  13.2448 H              1 <1>                0.0000
     14 H14          3.0328 -18.7540  14.5560 H              1 <1>                0.0000
     15 H15          1.5952 -18.9439  15.5883 H              1 <1>                0.0000
     16 H16          1.8828 -18.8086  11.6861 H              1 <1>                0.0000
     17 H17          0.6736 -20.9433  10.7521 H              1 <1>                0.0000
     18 H18          0.5511 -21.1868  14.9457 H              1 <1>                0.0000
@<TRIPOS>BOND
    1    1    2 ar    
    2    2    3 ar    
    3    2    4 1     
    4    4    5 2     
    5    4    6 1     
    6    5   12 1     
    7    5   13 1     
    8    6    7 1     
    9    6   14 1     
   10    6   15 1     
   11    7    8 1     
   12    7   11 1     
   13    8    9 2     
   14    8   16 1     
   15    9   10 1     
   16    9   17 1     
   17   10   11 2     
   18   11   18 1     
@<TRIPOS>SUBSTRUCTURE
      1 ****           1
@<TRIPOS>COMMENT
> <Gold.Version>
2022.2.0

> <Gold.Id.Protein>
3pbl|protein|mol2

> <Gold.Protein.RotatedTorsions>
[ 1303 1298 1297 1294 ] final   52.65 input  179.99 | X-H torsion
[ 2461 2456 2455 2452 ] final   -3.21 input   30.03 | X-H torsion
[ 2515 2510 2509 2506 ] final  119.93 input  -89.99 | X-H torsion
[ 3721 3712 3711 3710 ] final  -10.53 input -179.91 | X-H torsion
[ 3841 3832 3831 3830 ] final  137.88 input -179.91 | X-H torsion
[ 3767 3762 3761 3758 ] final  -80.56 input  -89.99 | X-H torsion
[ 2472 2467 2466 2463 ] final   79.44 input  -89.97 | X-H torsion

> <Gold.Protein.ActiveResidues>
 VAL82   VAL86   LEU89   PHE106  VAL107  ASP110  VAL111  MET112  CYS114  THR115 
 CYS181  SER182  ILE183  PHE188  VAL189  ILE190  SER192  SER193  SER196  TRP342 
 PHE345  PHE346  HIS349  VAL350  TYR365  THR369  GLY372  TYR373 

> <Gold.Protein.RotatedAtoms>
    3.9088  -10.2700    4.5648 H   0  0  0  0  0  0  0  0  0  0  0  0  # atno 1303 bound_to 1298
    0.9914   -8.0062    7.0314 H   0  0  0  0  0  0  0  0  0  0  0  0  # atno 2461 bound_to 2456
   -4.9502   -4.8759    7.7212 H   0  0  0  0  0  0  0  0  0  0  0  0  # atno 2472 bound_to 2467
    2.0414   -8.1651    6.0661 H   0  0  0  0  0  0  0  0  0  0  0  0  # atno 2515 bound_to 2510
   -2.5160  -17.8844   14.3810 H   0  0  0  0  0  0  0  0  0  0  0  0  # atno 3721 bound_to 3712
   -5.3186  -21.9446   11.0910 H   0  0  0  0  0  0  0  0  0  0  0  0  # atno 3767 bound_to 3762
    3.1322  -20.5446    8.7463 H   0  0  0  0  0  0  0  0  0  0  0  0  # atno 3841 bound_to 3832
    3.5665   -8.8765    3.7855 LP  0  0  0  0  0  0  0  0  0  0  0  0  # atno 4297 bound_to 1298
    4.8870   -8.9744    4.7412 LP  0  0  0  0  0  0  0  0  0  0  0  0  # atno 4298 bound_to 1298
    0.6117   -9.1944    8.0857 LP  0  0  0  0  0  0  0  0  0  0  0  0  # atno 4299 bound_to 2456
    2.1346   -8.6074    8.0309 LP  0  0  0  0  0  0  0  0  0  0  0  0  # atno 4300 bound_to 2456
    2.5413   -7.6295    4.6069 LP  0  0  0  0  0  0  0  0  0  0  0  0  # atno 4301 bound_to 2510
    2.7143   -9.2046    5.0019 LP  0  0  0  0  0  0  0  0  0  0  0  0  # atno 4302 bound_to 2510
   -3.4951  -16.6143   14.3026 LP  0  0  0  0  0  0  0  0  0  0  0  0  # atno 4306 bound_to 3712
   -3.1278  -17.4641   12.9573 LP  0  0  0  0  0  0  0  0  0  0  0  0  # atno 4307 bound_to 3712
    1.7657  -20.8317    9.5377 LP  0  0  0  0  0  0  0  0  0  0  0  0  # atno 4314 bound_to 3832
    1.8455  -19.6414    8.4226 LP  0  0  0  0  0  0  0  0  0  0  0  0  # atno 4315 bound_to 3832
   -3.9531  -22.7864   11.3966 LP  0  0  0  0  0  0  0  0  0  0  0  0  # atno 4318 bound_to 3762
   -4.8559  -23.1438   10.0836 LP  0  0  0  0  0  0  0  0  0  0  0  0  # atno 4319 bound_to 3762
   -3.6401   -5.0749    8.6754 LP  0  0  0  0  0  0  0  0  0  0  0  0  # atno 4320 bound_to 2467
   -5.1267   -5.4427    9.2424 LP  0  0  0  0  0  0  0  0  0  0  0  0  # atno 4321 bound_to 2467

> <Gold.Score>
     Score     S(PLP)   S(hbond)     S(cho)   S(metal)  DE(clash)   DE(tors)     intcor
     39.07     -28.14       2.00       2.00       0.00       0.00       0.53       0.00

> <Gold.PLP.Fitness>
39.0726

> <Gold.PLP.PLP>
-28.1367

> <Gold.PLP.part.hbond>
-2.0000

> <Gold.PLP.part.metal>
0.0000

> <Gold.PLP.part.buried>
-3.9391

> <Gold.PLP.part.nonpolar>
-22.8771

> <Gold.PLP.part.repulsive>
0.1137

> <Gold.PLP.ligand.clash>
0.0000

> <Gold.PLP.ligand.torsion>
0.5335

> <Gold.PLP.Chemscore.Hbond>
2.0000

> <Gold.PLP.Chemscore.CHOScore>
2.0000

> <Gold.PLP.Chemscore.Metal>
0.0000

> <Gold.Chemscore.Hbonds>
donor molecule, donor type, donor heavy atom, donor atom, acceptor molecule, acceptor atom, score
      P1  H  2305  2313       L1     3  1.00
      P1  H  3712  3721       L1     1  1.00
      L1  C     8    16       P1  1227  1.00
      L1  C     9    17       P1  3832  1.00

> <Gold.PLP.Chemscore.Internal.Correction>
0.0030

