#       Name:                EN300-307464_i001
#       Creating user name   fsindt
#       Creation time:       Tue Feb 28 18:57:03 2023


#       File generated by GOLD software.
#

@<TRIPOS>MOLECULE
EN300-307464_i001|acide_2|mol2|6586|dock4
    18    18     1
SMALL
USER_CHARGES


@<TRIPOS>ATOM
      1 O1           0.1999 -14.7819   6.7482 O.co2          1 <1>               -1.0000
      2 C2           0.1537 -14.5388   7.9466 C.2            1 <1>                0.0000
      3 O3          -0.0151 -15.4470   8.7491 O.co2          1 <1>                0.0000
      4 C4           0.3068 -13.1593   8.4217 C.2            1 <1>                0.0000
      5 C5           0.5055 -12.1722   7.5489 C.2            1 <1>                0.0000
      6 C6           0.2394 -12.8585   9.8968 C.3            1 <1>                0.0000
      7 N7          -0.7743 -11.8289  10.1394 N.pl3          1 <1>                0.0000
      8 C8          -0.7177 -10.5223   9.7356 C.2            1 <1>                0.0000
      9 C9          -1.8491  -9.9321  10.1663 C.2            1 <1>                0.0000
     10 N10         -2.5765 -10.8532  10.8153 N.2            1 <1>                0.0000
     11 C11         -1.9416 -11.9933  10.7981 C.2            1 <1>                0.0000
     12 H12          0.6183 -11.1567   7.8986 H              1 <1>                0.0000
     13 H13          0.5539 -12.3878   6.4917 H              1 <1>                0.0000
     14 H14         -0.0260 -13.7650  10.4407 H              1 <1>                0.0000
     15 H15          1.2102 -12.5003  10.2394 H              1 <1>                0.0000
     16 H16          0.0810 -10.0544   9.1791 H              1 <1>                0.0000
     17 H17         -2.1226  -8.8983  10.0154 H              1 <1>                0.0000
     18 H18         -2.2889 -12.9138  11.2435 H              1 <1>                0.0000
@<TRIPOS>BOND
    1    1    2 ar    
    2    2    3 ar    
    3    2    4 1     
    4    4    5 2     
    5    4    6 1     
    6    5   12 1     
    7    5   13 1     
    8    6    7 1     
    9    6   14 1     
   10    6   15 1     
   11    7    8 1     
   12    7   11 1     
   13    8    9 2     
   14    8   16 1     
   15    9   10 1     
   16    9   17 1     
   17   10   11 2     
   18   11   18 1     
@<TRIPOS>SUBSTRUCTURE
      1 ****           1
@<TRIPOS>COMMENT
> <Gold.Version>
2022.2.0

> <Gold.Id.Protein>
3pbl|protein|mol2

> <Gold.Protein.RotatedTorsions>
[ 1303 1298 1297 1294 ] final  -12.26 input  179.99 | X-H torsion
[ 2461 2456 2455 2452 ] final   71.19 input   30.03 | X-H torsion
[ 2515 2510 2509 2506 ] final  -87.84 input  -89.99 | X-H torsion
[ 3721 3712 3711 3710 ] final   66.31 input -179.91 | X-H torsion
[ 3841 3832 3831 3830 ] final -170.51 input -179.91 | X-H torsion
[ 3767 3762 3761 3758 ] final  -35.30 input  -89.99 | X-H torsion
[ 2472 2467 2466 2463 ] final -158.39 input  -89.97 | X-H torsion

> <Gold.Protein.ActiveResidues>
 VAL82   VAL86   LEU89   PHE106  VAL107  ASP110  VAL111  MET112  CYS114  THR115 
 CYS181  SER182  ILE183  PHE188  VAL189  ILE190  SER192  SER193  SER196  TRP342 
 PHE345  PHE346  HIS349  VAL350  TYR365  THR369  GLY372  TYR373 

> <Gold.Protein.RotatedAtoms>
    3.3404   -9.7026    3.9497 H   0  0  0  0  0  0  0  0  0  0  0  0  # atno 1303 bound_to 1298
    2.0245   -8.1157    7.5014 H   0  0  0  0  0  0  0  0  0  0  0  0  # atno 2461 bound_to 2456
   -5.0975   -5.4476    9.2626 H   0  0  0  0  0  0  0  0  0  0  0  0  # atno 2472 bound_to 2467
    2.8248   -8.9051    4.5873 H   0  0  0  0  0  0  0  0  0  0  0  0  # atno 2515 bound_to 2510
   -2.6263  -17.8581   13.3104 H   0  0  0  0  0  0  0  0  0  0  0  0  # atno 3721 bound_to 3712
   -5.5084  -22.2925   10.4831 H   0  0  0  0  0  0  0  0  0  0  0  0  # atno 3767 bound_to 3762
    2.8678  -19.9453    8.3734 H   0  0  0  0  0  0  0  0  0  0  0  0  # atno 3841 bound_to 3832
    4.3971   -8.4854    4.2110 LP  0  0  0  0  0  0  0  0  0  0  0  0  # atno 4297 bound_to 1298
    4.6249   -9.9332    4.9311 LP  0  0  0  0  0  0  0  0  0  0  0  0  # atno 4298 bound_to 1298
    0.4397   -8.4277    7.2597 LP  0  0  0  0  0  0  0  0  0  0  0  0  # atno 4299 bound_to 2456
    1.2738   -9.2646    8.3869 LP  0  0  0  0  0  0  0  0  0  0  0  0  # atno 4300 bound_to 2456
    2.1546   -8.6759    6.0583 LP  0  0  0  0  0  0  0  0  0  0  0  0  # atno 4301 bound_to 2510
    2.3172   -7.4178    5.0300 LP  0  0  0  0  0  0  0  0  0  0  0  0  # atno 4302 bound_to 2510
   -2.9331  -17.5106   14.8476 LP  0  0  0  0  0  0  0  0  0  0  0  0  # atno 4306 bound_to 3712
   -3.5625  -16.5983   13.6483 LP  0  0  0  0  0  0  0  0  0  0  0  0  # atno 4307 bound_to 3712
    2.5138  -21.1565    9.3653 LP  0  0  0  0  0  0  0  0  0  0  0  0  # atno 4314 bound_to 3832
    1.4028  -20.0089    9.0258 LP  0  0  0  0  0  0  0  0  0  0  0  0  # atno 4315 bound_to 3832
   -4.3669  -22.2472   11.6501 LP  0  0  0  0  0  0  0  0  0  0  0  0  # atno 4318 bound_to 3762
   -4.2524  -23.3352   10.4378 LP  0  0  0  0  0  0  0  0  0  0  0  0  # atno 4319 bound_to 3762
   -4.9826   -4.8835    7.7345 LP  0  0  0  0  0  0  0  0  0  0  0  0  # atno 4320 bound_to 2467
   -3.6369   -5.0625    8.6422 LP  0  0  0  0  0  0  0  0  0  0  0  0  # atno 4321 bound_to 2467

> <Gold.Score>
     Score     S(PLP)   S(hbond)     S(cho)   S(metal)  DE(clash)   DE(tors)     intcor
     38.90     -34.40       0.00       1.56       0.00       0.00       0.08       0.00

> <Gold.PLP.Fitness>
38.9047

> <Gold.PLP.PLP>
-34.3968

> <Gold.PLP.part.hbond>
0.0000

> <Gold.PLP.part.metal>
0.0000

> <Gold.PLP.part.buried>
-4.4570

> <Gold.PLP.part.nonpolar>
-30.7459

> <Gold.PLP.part.repulsive>
0.1910

> <Gold.PLP.ligand.clash>
0.0000

> <Gold.PLP.ligand.torsion>
0.0804

> <Gold.PLP.Chemscore.Hbond>
0.0000

> <Gold.PLP.Chemscore.CHOScore>
1.5551

> <Gold.PLP.Chemscore.Metal>
0.0000

> <Gold.Chemscore.Hbonds>
donor molecule, donor type, donor heavy atom, donor atom, acceptor molecule, acceptor atom, score
      L1  C     8    16       P1  2456  0.56
      L1  C     9    17       P1  2398  1.00

> <Gold.PLP.Chemscore.Internal.Correction>
0.0034

