#       Name:                EN300-307464_i001
#       Creating user name   fsindt
#       Creation time:       Tue Feb 28 18:57:04 2023


#       File generated by GOLD software.
#

@<TRIPOS>MOLECULE
EN300-307464_i001|acide_2|mol2|6586|dock7
    18    18     1
SMALL
USER_CHARGES


@<TRIPOS>ATOM
      1 O1           0.2362 -11.0681   8.1576 O.co2          1 <1>               -1.0000
      2 C2           0.1868 -12.0731   8.8540 C.2            1 <1>                0.0000
      3 O3           0.7588 -13.0941   8.4962 O.co2          1 <1>                0.0000
      4 C4          -0.5531 -12.0523  10.1206 C.2            1 <1>                0.0000
      5 C5          -0.7079 -13.1758  10.8203 C.2            1 <1>                0.0000
      6 C6          -1.1381 -10.7605  10.6304 C.3            1 <1>                0.0000
      7 N7          -2.5461 -10.6725  10.2353 N.pl3          1 <1>                0.0000
      8 C8          -3.2234  -9.5340   9.8910 C.2            1 <1>                0.0000
      9 C9          -4.4852  -9.9042   9.6002 C.2            1 <1>                0.0000
     10 N10         -4.5758 -11.2325   9.7625 N.2            1 <1>                0.0000
     11 C11         -3.4165 -11.7003  10.1372 C.2            1 <1>                0.0000
     12 H12         -1.2526 -13.1605  11.7527 H              1 <1>                0.0000
     13 H13         -0.2886 -14.1016  10.4549 H              1 <1>                0.0000
     14 H14         -1.0632 -10.7318  11.7174 H              1 <1>                0.0000
     15 H15         -0.5885  -9.9203  10.2060 H              1 <1>                0.0000
     16 H16         -2.8231  -8.5314   9.8594 H              1 <1>                0.0000
     17 H17         -5.2841  -9.2467   9.2905 H              1 <1>                0.0000
     18 H18         -3.1925 -12.7367  10.3421 H              1 <1>                0.0000
@<TRIPOS>BOND
    1    1    2 ar    
    2    2    3 ar    
    3    2    4 1     
    4    4    5 2     
    5    4    6 1     
    6    5   12 1     
    7    5   13 1     
    8    6    7 1     
    9    6   14 1     
   10    6   15 1     
   11    7    8 1     
   12    7   11 1     
   13    8    9 2     
   14    8   16 1     
   15    9   10 1     
   16    9   17 1     
   17   10   11 2     
   18   11   18 1     
@<TRIPOS>SUBSTRUCTURE
      1 ****           1
@<TRIPOS>COMMENT
> <Gold.Version>
2022.2.0

> <Gold.Id.Protein>
3pbl|protein|mol2

> <Gold.Protein.RotatedTorsions>
[ 1303 1298 1297 1294 ] final -167.63 input  179.99 | X-H torsion
[ 2461 2456 2455 2452 ] final -135.51 input   30.03 | X-H torsion
[ 2515 2510 2509 2506 ] final    8.38 input  -89.99 | X-H torsion
[ 3721 3712 3711 3710 ] final  -12.43 input -179.91 | X-H torsion
[ 3841 3832 3831 3830 ] final  124.80 input -179.91 | X-H torsion
[ 3767 3762 3761 3758 ] final   45.35 input  -89.99 | X-H torsion
[ 2472 2467 2466 2463 ] final  -19.49 input  -89.97 | X-H torsion

> <Gold.Protein.ActiveResidues>
 VAL82   VAL86   LEU89   PHE106  VAL107  ASP110  VAL111  MET112  CYS114  THR115 
 CYS181  SER182  ILE183  PHE188  VAL189  ILE190  SER192  SER193  SER196  TRP342 
 PHE345  PHE346  HIS349  VAL350  TYR365  THR369  GLY372  TYR373 

> <Gold.Protein.RotatedAtoms>
    4.7749   -8.7264    4.5677 H   0  0  0  0  0  0  0  0  0  0  0  0  # atno 1303 bound_to 1298
    0.7668   -9.2549    8.2003 H   0  0  0  0  0  0  0  0  0  0  0  0  # atno 2461 bound_to 2456
   -3.6657   -4.9615    8.3509 H   0  0  0  0  0  0  0  0  0  0  0  0  # atno 2472 bound_to 2467
    2.4831   -7.5493    4.7042 H   0  0  0  0  0  0  0  0  0  0  0  0  # atno 2515 bound_to 2510
   -2.5226  -17.8692   14.4043 H   0  0  0  0  0  0  0  0  0  0  0  0  # atno 3721 bound_to 3712
   -4.7735  -23.1907   10.1053 H   0  0  0  0  0  0  0  0  0  0  0  0  # atno 3767 bound_to 3762
    3.1023  -20.6802    8.8862 H   0  0  0  0  0  0  0  0  0  0  0  0  # atno 3841 bound_to 3832
    4.1786  -10.2369    4.7388 LP  0  0  0  0  0  0  0  0  0  0  0  0  # atno 4297 bound_to 1298
    3.4084   -9.1582    3.7850 LP  0  0  0  0  0  0  0  0  0  0  0  0  # atno 4298 bound_to 1298
    2.1609   -8.4611    7.8940 LP  0  0  0  0  0  0  0  0  0  0  0  0  # atno 4299 bound_to 2456
    0.8099   -8.0924    7.0540 LP  0  0  0  0  0  0  0  0  0  0  0  0  # atno 4300 bound_to 2456
    2.7536   -9.1497    4.8806 LP  0  0  0  0  0  0  0  0  0  0  0  0  # atno 4301 bound_to 2510
    2.0600   -8.3005    6.0907 LP  0  0  0  0  0  0  0  0  0  0  0  0  # atno 4302 bound_to 2510
   -3.5033  -16.6046   14.2736 LP  0  0  0  0  0  0  0  0  0  0  0  0  # atno 4306 bound_to 3712
   -3.1120  -17.4914   12.9594 LP  0  0  0  0  0  0  0  0  0  0  0  0  # atno 4307 bound_to 3712
    1.6166  -20.6791    9.4934 LP  0  0  0  0  0  0  0  0  0  0  0  0  # atno 4314 bound_to 3832
    2.0292  -19.6375    8.3054 LP  0  0  0  0  0  0  0  0  0  0  0  0  # atno 4315 bound_to 3832
   -5.3693  -21.9701   11.0120 LP  0  0  0  0  0  0  0  0  0  0  0  0  # atno 4318 bound_to 3762
   -3.9845  -22.7145   11.4535 LP  0  0  0  0  0  0  0  0  0  0  0  0  # atno 4319 bound_to 3762
   -4.8176   -5.4633    9.3939 LP  0  0  0  0  0  0  0  0  0  0  0  0  # atno 4320 bound_to 2467
   -5.2335   -4.9686    7.8943 LP  0  0  0  0  0  0  0  0  0  0  0  0  # atno 4321 bound_to 2467

> <Gold.Score>
     Score     S(PLP)   S(hbond)     S(cho)   S(metal)  DE(clash)   DE(tors)     intcor
     45.55     -40.96       1.00       1.00       0.00       0.00       0.71       0.00

> <Gold.PLP.Fitness>
45.5514

> <Gold.PLP.PLP>
-40.9624

> <Gold.PLP.part.hbond>
-1.0000

> <Gold.PLP.part.metal>
0.0000

> <Gold.PLP.part.buried>
-4.1863

> <Gold.PLP.part.nonpolar>
-36.5905

> <Gold.PLP.part.repulsive>
0.0959

> <Gold.PLP.ligand.clash>
0.0000

> <Gold.PLP.ligand.torsion>
0.7070

> <Gold.PLP.Chemscore.Hbond>
1.0000

> <Gold.PLP.Chemscore.CHOScore>
1.0000

> <Gold.PLP.Chemscore.Metal>
0.0000

> <Gold.Chemscore.Hbonds>
donor molecule, donor type, donor heavy atom, donor atom, acceptor molecule, acceptor atom, score
      P1  H  2456  2461       L1     1  1.00
      L1  C     8    16       P1  2398  1.00

> <Gold.PLP.Chemscore.Internal.Correction>
0.0030

