#       Name:                plp ligand
#       Creating user name   fsindt
#       Creation time:       Tue Feb 28 18:57:00 2023


#       File generated by GOLD software.
#

@<TRIPOS>MOLECULE
plp ligand
    18    18     1
SMALL
USER_CHARGES


@<TRIPOS>ATOM
      1 O1          -3.1603   0.6290  -1.0028 ACCEPTOR       1 <1>               -1.0000
      2 C2          -2.2201   0.7210  -0.2249 NONPOLAR       1 <1>                0.0000
      3 O3          -1.9438   1.8030   0.2757 ACCEPTOR       1 <1>                0.0000
      4 C4          -1.4280  -0.4669   0.1122 NONPOLAR       1 <1>                0.0000
      5 C5          -1.7323  -1.6461  -0.4287 NONPOLAR       1 <1>                0.0000
      6 C6          -0.2702  -0.3535   1.0701 NONPOLAR       1 <1>                0.0000
      7 N7           0.9286   0.0658   0.3398 NONPOLAR       1 <1>                0.0000
      8 C8           1.3368   1.3537   0.1200 NONPOLAR       1 <1>                0.0000
      9 C9           2.4801   1.2845  -0.5884 NONPOLAR       1 <1>                0.0000
     10 N10          2.7622  -0.0104  -0.7954 ACCEPTOR       1 <1>                0.0000
     11 C11          1.8403  -0.7462  -0.2372 NONPOLAR       1 <1>                0.0000
     12 H12         -1.1492  -2.5206  -0.1805                1 <1>                0.0000
     13 H13         -2.5621  -1.7272  -1.1152                1 <1>                0.0000
     14 H14         -0.5046   0.3840   1.8377                1 <1>                0.0000
     15 H15         -0.0903  -1.3212   1.5387                1 <1>                0.0000
     16 H16          0.8376   2.2525   0.4505                1 <1>                0.0000
     17 H17          3.0669   2.1243  -0.9298                1 <1>                0.0000
     18 H18          1.8080  -1.8257  -0.2424                1 <1>                0.0000
@<TRIPOS>BOND
    1    1    2 ar    
    2    2    3 ar    
    3    2    4 1     
    4    4    5 2     
    5    4    6 1     
    6    5   12 1     
    7    5   13 1     
    8    6    7 1     
    9    6   14 1     
   10    6   15 1     
   11    7    8 1     
   12    7   11 1     
   13    8    9 2     
   14    8   16 1     
   15    9   10 1     
   16    9   17 1     
   17   10   11 2     
   18   11   18 1     
@<TRIPOS>SUBSTRUCTURE
      1 ****           1
@<TRIPOS>SET
DONOR_HYDROGENS      STATIC     ATOMS    <user>   **** ""
0
ATOM$RED        STATIC     ATOMS    COLORGROUP SYSTEM
0
