#       Name:                EN300-33038650_i004
#       Creating user name   aseyller
#       Creation time:       Sat Apr 22 06:22:49 2023


#       File generated by GOLD software.
#

@<TRIPOS>MOLECULE
EN300-33038650_i004|amine_3|mol2|3696|dock7
    30    30     1
SMALL
USER_CHARGES


@<TRIPOS>ATOM
      1 C1          31.5780  37.7846  37.2290 C.3            1 <1>                0.0000
      2 O2          30.5733  37.3401  38.1783 O.3            1 <1>                0.0000
      3 C3          30.7149  36.1038  38.6814 C.2            1 <1>                0.0000
      4 O4          31.7299  35.4809  38.4769 O.2            1 <1>                0.0000
      5 C5          29.6080  35.4925  39.5013 C.3            1 <1>                0.0000
      6 C6          28.4557  36.4910  39.6276 C.3            1 <1>                0.0000
      7 C7          27.8809  36.7845  38.2404 C.3            1 <1>                0.0000
      8 C8          26.7285  37.7830  38.3665 C.3            1 <1>                0.0000
      9 C9          25.6348  37.1897  39.2567 C.3            1 <1>                0.0000
     10 C10         26.2096  36.8961  40.6439 C.3            1 <1>                0.0000
     11 N11         25.1594  36.3265  41.4987 N.4            1 <1>                1.0000
     12 C12         27.3619  35.8976  40.5178 C.3            1 <1>                0.0000
     13 H13         32.5583  37.7728  37.7053 H              1 <1>                0.0000
     14 H14         31.5845  37.1168  36.3675 H              1 <1>                0.0000
     15 H15         31.3454  38.7979  36.9015 H              1 <1>                0.0000
     16 H16         29.2515  34.5861  39.0121 H              1 <1>                0.0000
     17 H17         29.9850  35.2454  40.4938 H              1 <1>                0.0000
     18 H18         28.8235  37.4161  40.0716 H              1 <1>                0.0000
     19 H19         28.6601  37.2072  37.6062 H              1 <1>                0.0000
     20 H20         27.5131  35.8595  37.7964 H              1 <1>                0.0000
     21 H21         27.0963  38.7080  38.8107 H              1 <1>                0.0000
     22 H22         26.3190  37.9921  37.3783 H              1 <1>                0.0000
     23 H23         24.8138  37.9010  39.3467 H              1 <1>                0.0000
     24 H24         25.2670  36.2646  38.8127 H              1 <1>                0.0000
     25 H25         26.5773  37.8212  41.0880 H              1 <1>                0.0000
     26 H26         26.9941  34.9727  40.0737 H              1 <1>                0.0000
     27 H27         27.7714  35.6885  41.5061 H              1 <1>                0.0000
     28 H28         25.5763  35.7024  42.1731 H              1 <1>                0.0000
     29 H29         24.6781  37.0704  41.9814 H              1 <1>                0.0000
     30 H30         24.5024  35.8151  40.9287 H              1 <1>                0.0000
@<TRIPOS>BOND
    1    1    2 1     
    2    1   13 1     
    3    1   14 1     
    4    1   15 1     
    5    2    3 1     
    6    3    4 2     
    7    3    5 1     
    8    5    6 1     
    9    5   16 1     
   10    5   17 1     
   11    6    7 1     
   12    6   12 1     
   13    6   18 1     
   14    7    8 1     
   15    7   19 1     
   16    7   20 1     
   17    8    9 1     
   18    8   21 1     
   19    8   22 1     
   20    9   10 1     
   21    9   23 1     
   22    9   24 1     
   23   10   11 1     
   24   10   12 1     
   25   10   25 1     
   26   11   28 1     
   27   11   29 1     
   28   11   30 1     
   29   12   26 1     
   30   12   27 1     
@<TRIPOS>SUBSTRUCTURE
      1 ****           1
@<TRIPOS>SET
DONOR_HYDROGENS      STATIC     ATOMS    <user>   **** ""
3 28 29 30
ATOM$RED        STATIC     ATOMS    COLORGROUP SYSTEM
3 28 29 30
@<TRIPOS>COMMENT
> <Gold.Version>
2022.2.0

> <Gold.Id.Protein>
1qkm|1qkm_protein|mol2

> <Gold.Protein.RotatedTorsions>
[  496  491  490  487 ] final   -2.81 input  -89.99 | X-H torsion

> <Gold.Protein.ActiveResidues>
 MET295  LEU298  THR299  LEU301  ALA302  GLU305  TRP335  MET336  LEU339  MET340 
 GLY342  LEU343  ARG346  PHE356  ILE373  ILE376  PHE377  LEU380  LYS471  GLY472 
 MET473  HIS475  LEU476  LEU477  ASN478  MET479  VAL484  VAL487 

> <Gold.Protein.RotatedAtoms>
   36.2588   34.2531   42.2121 H   0  0  0  0  0  0  0  0  0  0  0  0  # atno 496  bound_to 491 

> <Gold.Score>
     Score     S(PLP)   S(hbond)     S(cho)   S(metal)  DE(clash)   DE(tors)     intcor
     46.40     -39.49       2.36       0.00       0.00       0.01       0.09       0.00

> <Gold.PLP.Fitness>
46.3953

> <Gold.PLP.PLP>
-39.4881

> <Gold.PLP.part.hbond>
-1.5609

> <Gold.PLP.part.metal>
0.0000

> <Gold.PLP.part.buried>
-4.8181

> <Gold.PLP.part.nonpolar>
-33.6165

> <Gold.PLP.part.repulsive>
0.2359

> <Gold.PLP.ligand.clash>
0.0069

> <Gold.PLP.ligand.torsion>
0.0903

> <Gold.PLP.Chemscore.Hbond>
2.3643

> <Gold.PLP.Chemscore.CHOScore>
0.0000

> <Gold.PLP.Chemscore.Metal>
0.0000

> <Gold.Chemscore.Hbonds>
donor molecule, donor type, donor heavy atom, donor atom, acceptor molecule, acceptor atom, score
      L1  H    11    28       P1   582  2.00
      L1  H    11    30       P1  1131  0.36

> <Gold.PLP.Chemscore.Internal.Correction>
0.0017

