#       Name:                EN300-33038650_i004
#       Creating user name   aseyller
#       Creation time:       Sat Apr 22 06:22:48 2023


#       File generated by GOLD software.
#

@<TRIPOS>MOLECULE
EN300-33038650_i004|amine_3|mol2|3696|dock4
    30    30     1
SMALL
USER_CHARGES


@<TRIPOS>ATOM
      1 C1          31.1999  38.7353  34.9220 C.3            1 <1>                0.0000
      2 O2          31.2603  37.7329  35.9706 O.3            1 <1>                0.0000
      3 C3          30.3025  37.7750  36.9100 C.2            1 <1>                0.0000
      4 O4          29.4504  38.6307  36.8659 O.2            1 <1>                0.0000
      5 C5          30.2896  36.7553  38.0195 C.3            1 <1>                0.0000
      6 C6          29.0929  37.0146  38.9367 C.3            1 <1>                0.0000
      7 C7          27.7968  36.7142  38.1813 C.3            1 <1>                0.0000
      8 C8          26.6000  36.9735  39.0985 C.3            1 <1>                0.0000
      9 C9          26.6948  36.0687  40.3286 C.3            1 <1>                0.0000
     10 C10         27.9909  36.3691  41.0841 C.3            1 <1>                0.0000
     11 N11         28.0819  35.5004  42.2652 N.4            1 <1>                1.0000
     12 C12         29.1877  36.1098  40.1669 C.3            1 <1>                0.0000
     13 H13         30.2571  38.6410  34.3831 H              1 <1>                0.0000
     14 H14         31.2676  39.7290  35.3648 H              1 <1>                0.0000
     15 H15         32.0296  38.5884  34.2305 H              1 <1>                0.0000
     16 H16         30.2107  35.7553  37.5929 H              1 <1>                0.0000
     17 H17         31.2121  36.8329  38.5950 H              1 <1>                0.0000
     18 H18         29.0962  38.0580  39.2520 H              1 <1>                0.0000
     19 H19         27.7293  37.3588  37.3049 H              1 <1>                0.0000
     20 H20         27.7935  35.6708  37.8660 H              1 <1>                0.0000
     21 H21         26.6033  38.0169  39.4139 H              1 <1>                0.0000
     22 H22         25.6766  36.7595  38.5603 H              1 <1>                0.0000
     23 H23         25.8421  36.2535  40.9821 H              1 <1>                0.0000
     24 H24         26.6915  35.0253  40.0134 H              1 <1>                0.0000
     25 H25         27.9941  37.4125  41.3994 H              1 <1>                0.0000
     26 H26         29.1844  35.0664  39.8516 H              1 <1>                0.0000
     27 H27         30.1111  36.3238  40.7051 H              1 <1>                0.0000
     28 H28         27.1535  35.2842  42.5961 H              1 <1>                0.0000
     29 H29         28.5584  34.6459  42.0184 H              1 <1>                0.0000
     30 H30         28.5962  35.9743  42.9925 H              1 <1>                0.0000
@<TRIPOS>BOND
    1    1    2 1     
    2    1   13 1     
    3    1   14 1     
    4    1   15 1     
    5    2    3 1     
    6    3    4 2     
    7    3    5 1     
    8    5    6 1     
    9    5   16 1     
   10    5   17 1     
   11    6    7 1     
   12    6   12 1     
   13    6   18 1     
   14    7    8 1     
   15    7   19 1     
   16    7   20 1     
   17    8    9 1     
   18    8   21 1     
   19    8   22 1     
   20    9   10 1     
   21    9   23 1     
   22    9   24 1     
   23   10   11 1     
   24   10   12 1     
   25   10   25 1     
   26   11   28 1     
   27   11   29 1     
   28   11   30 1     
   29   12   26 1     
   30   12   27 1     
@<TRIPOS>SUBSTRUCTURE
      1 ****           1
@<TRIPOS>SET
DONOR_HYDROGENS      STATIC     ATOMS    <user>   **** ""
3 28 29 30
ATOM$RED        STATIC     ATOMS    COLORGROUP SYSTEM
3 28 29 30
@<TRIPOS>COMMENT
> <Gold.Version>
2022.2.0

> <Gold.Id.Protein>
1qkm|1qkm_protein|mol2

> <Gold.Protein.RotatedTorsions>
[  496  491  490  487 ] final -163.11 input  -89.99 | X-H torsion

> <Gold.Protein.ActiveResidues>
 MET295  LEU298  THR299  LEU301  ALA302  GLU305  TRP335  MET336  LEU339  MET340 
 GLY342  LEU343  ARG346  PHE356  ILE373  ILE376  PHE377  LEU380  LYS471  GLY472 
 MET473  HIS475  LEU476  LEU477  ASN478  MET479  VAL484  VAL487 

> <Gold.Protein.RotatedAtoms>
   37.2859   33.7148   40.7597 H   0  0  0  0  0  0  0  0  0  0  0  0  # atno 496  bound_to 491 

> <Gold.Score>
     Score     S(PLP)   S(hbond)     S(cho)   S(metal)  DE(clash)   DE(tors)     intcor
     44.81     -38.87       2.00       0.00       0.00       0.00       0.03       0.00

> <Gold.PLP.Fitness>
44.8082

> <Gold.PLP.PLP>
-38.8724

> <Gold.PLP.part.hbond>
-1.0000

> <Gold.PLP.part.metal>
0.0000

> <Gold.PLP.part.buried>
-3.6981

> <Gold.PLP.part.nonpolar>
-34.8129

> <Gold.PLP.part.repulsive>
0.0954

> <Gold.PLP.ligand.clash>
0.0000

> <Gold.PLP.ligand.torsion>
0.0330

> <Gold.PLP.Chemscore.Hbond>
2.0000

> <Gold.PLP.Chemscore.CHOScore>
0.0000

> <Gold.PLP.Chemscore.Metal>
0.0000

> <Gold.Chemscore.Hbonds>
donor molecule, donor type, donor heavy atom, donor atom, acceptor molecule, acceptor atom, score
      L1  H    11    28       P1   582  2.00

> <Gold.PLP.Chemscore.Internal.Correction>
0.0017

