#       Name:                EN300-33038650_i004
#       Creating user name   aseyller
#       Creation time:       Sat Apr 22 06:22:54 2023


#       File generated by GOLD software.
#

@<TRIPOS>MOLECULE
EN300-33038650_i004|amine_3|mol2|3696|dock17
    30    30     1
SMALL
USER_CHARGES


@<TRIPOS>ATOM
      1 C1          30.5703  40.2824  36.0108 C.3            1 <1>                0.0000
      2 O2          30.6174  39.0060  36.7013 O.3            1 <1>                0.0000
      3 C3          29.4573  38.5274  37.1774 C.2            1 <1>                0.0000
      4 O4          28.4289  39.1309  36.9813 O.2            1 <1>                0.0000
      5 C5          29.4371  37.2375  37.9564 C.3            1 <1>                0.0000
      6 C6          28.3915  37.3302  39.0694 C.3            1 <1>                0.0000
      7 C7          27.0113  36.9927  38.5020 C.3            1 <1>                0.0000
      8 C8          25.9656  37.0853  39.6150 C.3            1 <1>                0.0000
      9 C9          26.3158  36.0950  40.7274 C.3            1 <1>                0.0000
     10 C10         27.6960  36.4325  41.2949 C.3            1 <1>                0.0000
     11 N11         28.0322  35.4817  42.3630 N.4            1 <1>                1.0000
     12 C12         28.7417  36.3399  40.1819 C.3            1 <1>                0.0000
     13 H13         29.9095  40.2042  35.1474 H              1 <1>                0.0000
     14 H14         30.1936  41.0485  36.6885 H              1 <1>                0.0000
     15 H15         31.5724  40.5526  35.6779 H              1 <1>                0.0000
     16 H16         29.1850  36.4137  37.2886 H              1 <1>                0.0000
     17 H17         30.4197  37.0624  38.3946 H              1 <1>                0.0000
     18 H18         28.3803  38.3422  39.4742 H              1 <1>                0.0000
     19 H19         26.7618  37.6982  37.7095 H              1 <1>                0.0000
     20 H20         27.0224  35.9806  38.0973 H              1 <1>                0.0000
     21 H21         25.9545  38.0972  40.0198 H              1 <1>                0.0000
     22 H22         24.9823  36.8448  39.2107 H              1 <1>                0.0000
     23 H23         25.5708  36.1609  41.5204 H              1 <1>                0.0000
     24 H24         26.3269  35.0829  40.3227 H              1 <1>                0.0000
     25 H25         27.6848  37.4445  41.6997 H              1 <1>                0.0000
     26 H26         28.7527  35.3279  39.7771 H              1 <1>                0.0000
     27 H27         29.7250  36.5803  40.5861 H              1 <1>                0.0000
     28 H28         27.1933  35.2260  42.8621 H              1 <1>                0.0000
     29 H29         28.4483  34.6557  41.9595 H              1 <1>                0.0000
     30 H30         28.6858  35.9100  43.0012 H              1 <1>                0.0000
@<TRIPOS>BOND
    1    1    2 1     
    2    1   13 1     
    3    1   14 1     
    4    1   15 1     
    5    2    3 1     
    6    3    4 2     
    7    3    5 1     
    8    5    6 1     
    9    5   16 1     
   10    5   17 1     
   11    6    7 1     
   12    6   12 1     
   13    6   18 1     
   14    7    8 1     
   15    7   19 1     
   16    7   20 1     
   17    8    9 1     
   18    8   21 1     
   19    8   22 1     
   20    9   10 1     
   21    9   23 1     
   22    9   24 1     
   23   10   11 1     
   24   10   12 1     
   25   10   25 1     
   26   11   28 1     
   27   11   29 1     
   28   11   30 1     
   29   12   26 1     
   30   12   27 1     
@<TRIPOS>SUBSTRUCTURE
      1 ****           1
@<TRIPOS>SET
DONOR_HYDROGENS      STATIC     ATOMS    <user>   **** ""
3 28 29 30
ATOM$RED        STATIC     ATOMS    COLORGROUP SYSTEM
3 28 29 30
@<TRIPOS>COMMENT
> <Gold.Version>
2022.2.0

> <Gold.Id.Protein>
1qkm|1qkm_protein|mol2

> <Gold.Protein.RotatedTorsions>
[  496  491  490  487 ] final  146.53 input  -89.99 | X-H torsion

> <Gold.Protein.ActiveResidues>
 MET295  LEU298  THR299  LEU301  ALA302  GLU305  TRP335  MET336  LEU339  MET340 
 GLY342  LEU343  ARG346  PHE356  ILE373  ILE376  PHE377  LEU380  LYS471  GLY472 
 MET473  HIS475  LEU476  LEU477  ASN478  MET479  VAL484  VAL487 

> <Gold.Protein.RotatedAtoms>
   37.2475   33.0741   41.2415 H   0  0  0  0  0  0  0  0  0  0  0  0  # atno 496  bound_to 491 

> <Gold.Score>
     Score     S(PLP)   S(hbond)     S(cho)   S(metal)  DE(clash)   DE(tors)     intcor
     45.00     -40.19       2.00       0.00       0.00       0.00       0.60       0.00

> <Gold.PLP.Fitness>
44.9961

> <Gold.PLP.PLP>
-40.1877

> <Gold.PLP.part.hbond>
-1.0000

> <Gold.PLP.part.metal>
0.0000

> <Gold.PLP.part.buried>
-3.3508

> <Gold.PLP.part.nonpolar>
-35.1929

> <Gold.PLP.part.repulsive>
0.0880

> <Gold.PLP.ligand.clash>
0.0000

> <Gold.PLP.ligand.torsion>
0.5965

> <Gold.PLP.Chemscore.Hbond>
2.0000

> <Gold.PLP.Chemscore.CHOScore>
0.0000

> <Gold.PLP.Chemscore.Metal>
0.0000

> <Gold.Chemscore.Hbonds>
donor molecule, donor type, donor heavy atom, donor atom, acceptor molecule, acceptor atom, score
      L1  H    11    28       P1   582  2.00

> <Gold.PLP.Chemscore.Internal.Correction>
0.0014

