#       Name:                EN300-33038650_i004
#       Creating user name   aseyller
#       Creation time:       Sat Apr 22 06:22:53 2023


#       File generated by GOLD software.
#

@<TRIPOS>MOLECULE
EN300-33038650_i004|amine_3|mol2|3696|dock14
    30    30     1
SMALL
USER_CHARGES


@<TRIPOS>ATOM
      1 C1          33.2919  35.7180  36.8162 C.3            1 <1>                0.0000
      2 O2          32.3909  35.0947  37.7690 O.3            1 <1>                0.0000
      3 C3          31.3832  35.8476  38.2373 C.2            1 <1>                0.0000
      4 O4          31.3067  37.0136  37.9298 O.2            1 <1>                0.0000
      5 C5          30.3471  35.2386  39.1466 C.3            1 <1>                0.0000
      6 C6          29.1903  36.2225  39.3326 C.3            1 <1>                0.0000
      7 C7          28.5877  36.5649  37.9686 C.3            1 <1>                0.0000
      8 C8          27.4309  37.5488  38.1544 C.3            1 <1>                0.0000
      9 C9          26.3580  36.9129  39.0408 C.3            1 <1>                0.0000
     10 C10         26.9606  36.5705  40.4048 C.3            1 <1>                0.0000
     11 N11         25.9305  35.9599  41.2558 N.4            1 <1>                1.0000
     12 C12         28.1175  35.5866  40.2189 C.3            1 <1>                0.0000
     13 H13         32.7296  36.0339  35.9374 H              1 <1>                0.0000
     14 H14         33.7641  36.5858  37.2766 H              1 <1>                0.0000
     15 H15         34.0584  35.0023  36.5189 H              1 <1>                0.0000
     16 H16         29.9720  34.3161  38.7035 H              1 <1>                0.0000
     17 H17         30.7972  35.0198  40.1150 H              1 <1>                0.0000
     18 H18         29.5597  37.1325  39.8053 H              1 <1>                0.0000
     19 H19         29.3520  37.0179  37.3371 H              1 <1>                0.0000
     20 H20         28.2183  35.6549  37.4958 H              1 <1>                0.0000
     21 H21         27.8002  38.4587  38.6273 H              1 <1>                0.0000
     22 H22         27.0016  37.7927  37.1827 H              1 <1>                0.0000
     23 H23         25.5339  37.6138  39.1732 H              1 <1>                0.0000
     24 H24         25.9886  36.0028  38.5680 H              1 <1>                0.0000
     25 H25         27.3299  37.4805  40.8776 H              1 <1>                0.0000
     26 H26         27.7480  34.6766  39.7461 H              1 <1>                0.0000
     27 H27         28.5467  35.3427  41.1907 H              1 <1>                0.0000
     28 H28         25.3018  36.6755  41.5887 H              1 <1>                0.0000
     29 H29         25.4122  35.2792  40.7209 H              1 <1>                0.0000
     30 H30         26.3699  35.5058  42.0424 H              1 <1>                0.0000
@<TRIPOS>BOND
    1    1    2 1     
    2    1   13 1     
    3    1   14 1     
    4    1   15 1     
    5    2    3 1     
    6    3    4 2     
    7    3    5 1     
    8    5    6 1     
    9    5   16 1     
   10    5   17 1     
   11    6    7 1     
   12    6   12 1     
   13    6   18 1     
   14    7    8 1     
   15    7   19 1     
   16    7   20 1     
   17    8    9 1     
   18    8   21 1     
   19    8   22 1     
   20    9   10 1     
   21    9   23 1     
   22    9   24 1     
   23   10   11 1     
   24   10   12 1     
   25   10   25 1     
   26   11   28 1     
   27   11   29 1     
   28   11   30 1     
   29   12   26 1     
   30   12   27 1     
@<TRIPOS>SUBSTRUCTURE
      1 ****           1
@<TRIPOS>SET
DONOR_HYDROGENS      STATIC     ATOMS    <user>   **** ""
3 28 29 30
ATOM$RED        STATIC     ATOMS    COLORGROUP SYSTEM
3 28 29 30
@<TRIPOS>COMMENT
> <Gold.Version>
2022.2.0

> <Gold.Id.Protein>
1qkm|1qkm_protein|mol2

> <Gold.Protein.RotatedTorsions>
[  496  491  490  487 ] final   43.54 input  -89.99 | X-H torsion

> <Gold.Protein.ActiveResidues>
 MET295  LEU298  THR299  LEU301  ALA302  GLU305  TRP335  MET336  LEU339  MET340 
 GLY342  LEU343  ARG346  PHE356  ILE373  ILE376  PHE377  LEU380  LYS471  GLY472 
 MET473  HIS475  LEU476  LEU477  ASN478  MET479  VAL484  VAL487 

> <Gold.Protein.RotatedAtoms>
   36.4270   33.5483   42.3732 H   0  0  0  0  0  0  0  0  0  0  0  0  # atno 496  bound_to 491 

> <Gold.Score>
     Score     S(PLP)   S(hbond)     S(cho)   S(metal)  DE(clash)   DE(tors)     intcor
     42.82     -37.58       1.82       0.00       0.00       0.00       0.12       0.00

> <Gold.PLP.Fitness>
42.8229

> <Gold.PLP.PLP>
-37.5830

> <Gold.PLP.part.hbond>
-1.0000

> <Gold.PLP.part.metal>
0.0000

> <Gold.PLP.part.buried>
-4.0432

> <Gold.PLP.part.nonpolar>
-33.6294

> <Gold.PLP.part.repulsive>
0.1179

> <Gold.PLP.ligand.clash>
0.0000

> <Gold.PLP.ligand.torsion>
0.1167

> <Gold.PLP.Chemscore.Hbond>
1.8240

> <Gold.PLP.Chemscore.CHOScore>
0.0000

> <Gold.PLP.Chemscore.Metal>
0.0000

> <Gold.Chemscore.Hbonds>
donor molecule, donor type, donor heavy atom, donor atom, acceptor molecule, acceptor atom, score
      L1  H    11    30       P1   582  1.82

> <Gold.PLP.Chemscore.Internal.Correction>
0.0014

