#       Name:                EN300-33038650_i004
#       Creating user name   aseyller
#       Creation time:       Sat Apr 22 06:22:54 2023


#       File generated by GOLD software.
#

@<TRIPOS>MOLECULE
EN300-33038650_i004|amine_3|mol2|3696|dock18
    30    30     1
SMALL
USER_CHARGES


@<TRIPOS>ATOM
      1 C1          31.8107  33.6313  38.4898 C.3            1 <1>                0.0000
      2 O2          30.9470  34.6982  38.9628 O.3            1 <1>                0.0000
      3 C3          31.1469  35.9197  38.4436 C.2            1 <1>                0.0000
      4 O4          32.1755  36.1670  37.8596 O.2            1 <1>                0.0000
      5 C5          30.0887  36.9828  38.5889 C.3            1 <1>                0.0000
      6 C6          28.9041  36.4190  39.3760 C.3            1 <1>                0.0000
      7 C7          29.1232  36.6612  40.8707 C.3            1 <1>                0.0000
      8 C8          27.9386  36.0974  41.6579 C.3            1 <1>                0.0000
      9 C9          26.6517  36.7943  41.2116 C.3            1 <1>                0.0000
     10 C10         26.4326  36.5521  39.7169 C.3            1 <1>                0.0000
     11 N11         25.1970  37.2213  39.2884 N.4            1 <1>                1.0000
     12 C12         27.6172  37.1159  38.9297 C.3            1 <1>                0.0000
     13 H13         31.6884  33.5153  37.4128 H              1 <1>                0.0000
     14 H14         32.8487  33.8781  38.7130 H              1 <1>                0.0000
     15 H15         31.5435  32.6994  38.9881 H              1 <1>                0.0000
     16 H16         30.5042  37.8387  39.1209 H              1 <1>                0.0000
     17 H17         29.7519  37.2976  37.6012 H              1 <1>                0.0000
     18 H18         28.8207  35.3482  39.1898 H              1 <1>                0.0000
     19 H19         30.0400  36.1647  41.1887 H              1 <1>                0.0000
     20 H20         29.2065  37.7319  41.0569 H              1 <1>                0.0000
     21 H21         27.8551  35.0267  41.4717 H              1 <1>                0.0000
     22 H22         28.0947  36.2699  42.7228 H              1 <1>                0.0000
     23 H23         25.8077  36.3926  41.7724 H              1 <1>                0.0000
     24 H24         26.7351  37.8651  41.3978 H              1 <1>                0.0000
     25 H25         26.3491  35.4814  39.5307 H              1 <1>                0.0000
     26 H26         27.7005  38.1866  39.1160 H              1 <1>                0.0000
     27 H27         27.4611  36.9434  37.8649 H              1 <1>                0.0000
     28 H28         25.2528  38.2042  39.5093 H              1 <1>                0.0000
     29 H29         25.0802  37.1065  38.2927 H              1 <1>                0.0000
     30 H30         24.4093  36.8128  39.7687 H              1 <1>                0.0000
@<TRIPOS>BOND
    1    1    2 1     
    2    1   13 1     
    3    1   14 1     
    4    1   15 1     
    5    2    3 1     
    6    3    4 2     
    7    3    5 1     
    8    5    6 1     
    9    5   16 1     
   10    5   17 1     
   11    6    7 1     
   12    6   12 1     
   13    6   18 1     
   14    7    8 1     
   15    7   19 1     
   16    7   20 1     
   17    8    9 1     
   18    8   21 1     
   19    8   22 1     
   20    9   10 1     
   21    9   23 1     
   22    9   24 1     
   23   10   11 1     
   24   10   12 1     
   25   10   25 1     
   26   11   28 1     
   27   11   29 1     
   28   11   30 1     
   29   12   26 1     
   30   12   27 1     
@<TRIPOS>SUBSTRUCTURE
      1 ****           1
@<TRIPOS>SET
DONOR_HYDROGENS      STATIC     ATOMS    <user>   **** ""
3 28 29 30
ATOM$RED        STATIC     ATOMS    COLORGROUP SYSTEM
3 28 29 30
@<TRIPOS>COMMENT
> <Gold.Version>
2022.2.0

> <Gold.Id.Protein>
1qkm|1qkm_protein|mol2

> <Gold.Protein.RotatedTorsions>
[  496  491  490  487 ] final   62.68 input  -89.99 | X-H torsion

> <Gold.Protein.ActiveResidues>
 MET295  LEU298  THR299  LEU301  ALA302  GLU305  TRP335  MET336  LEU339  MET340 
 GLY342  LEU343  ARG346  PHE356  ILE373  ILE376  PHE377  LEU380  LYS471  GLY472 
 MET473  HIS475  LEU476  LEU477  ASN478  MET479  VAL484  VAL487 

> <Gold.Protein.RotatedAtoms>
   36.5739   33.2855   42.2856 H   0  0  0  0  0  0  0  0  0  0  0  0  # atno 496  bound_to 491 

> <Gold.Score>
     Score     S(PLP)   S(hbond)     S(cho)   S(metal)  DE(clash)   DE(tors)     intcor
     43.37     -42.03       0.83       0.00       0.00       0.00       0.58       0.00

> <Gold.PLP.Fitness>
43.3691

> <Gold.PLP.PLP>
-42.0321

> <Gold.PLP.part.hbond>
-1.0000

> <Gold.PLP.part.metal>
0.0000

> <Gold.PLP.part.buried>
-3.7478

> <Gold.PLP.part.nonpolar>
-38.4165

> <Gold.PLP.part.repulsive>
0.2419

> <Gold.PLP.ligand.clash>
0.0000

> <Gold.PLP.ligand.torsion>
0.5826

> <Gold.PLP.Chemscore.Hbond>
0.8336

> <Gold.PLP.Chemscore.CHOScore>
0.0000

> <Gold.PLP.Chemscore.Metal>
0.0000

> <Gold.Chemscore.Hbonds>
donor molecule, donor type, donor heavy atom, donor atom, acceptor molecule, acceptor atom, score
      L1  H    11    30       P1  1131  0.83

> <Gold.PLP.Chemscore.Internal.Correction>
0.0014

