#       Name:                EN300-33038650_i004
#       Creating user name   aseyller
#       Creation time:       Sat Apr 22 06:22:54 2023


#       File generated by GOLD software.
#

@<TRIPOS>MOLECULE
EN300-33038650_i004|amine_3|mol2|3696|dock16
    30    30     1
SMALL
USER_CHARGES


@<TRIPOS>ATOM
      1 C1          31.7801  36.8780  35.8768 C.3            1 <1>                0.0000
      2 O2          31.4943  36.4080  37.2205 O.3            1 <1>                0.0000
      3 C3          30.2990  36.7320  37.7382 C.2            1 <1>                0.0000
      4 O4          29.5399  37.4338  37.1126 O.2            1 <1>                0.0000
      5 C5          29.9038  36.2207  39.0997 C.3            1 <1>                0.0000
      6 C6          28.5326  36.7844  39.4778 C.3            1 <1>                0.0000
      7 C7          27.4563  36.1359  38.6050 C.3            1 <1>                0.0000
      8 C8          26.0850  36.6995  38.9831 C.3            1 <1>                0.0000
      9 C9          25.7980  36.3978  40.4553 C.3            1 <1>                0.0000
     10 C10         26.8743  37.0462  41.3281 C.3            1 <1>                0.0000
     11 N11         26.5987  36.7565  42.7417 N.4            1 <1>                1.0000
     12 C12         28.2455  36.4826  40.9500 C.3            1 <1>                0.0000
     13 H13         31.0417  36.4722  35.1852 H              1 <1>                0.0000
     14 H14         31.7375  37.9669  35.8560 H              1 <1>                0.0000
     15 H15         32.7756  36.5475  35.5803 H              1 <1>                0.0000
     16 H16         29.8561  35.1320  39.0791 H              1 <1>                0.0000
     17 H17         30.6427  36.5382  39.8355 H              1 <1>                0.0000
     18 H18         28.5271  37.8629  39.3202 H              1 <1>                0.0000
     19 H19         27.6608  36.3509  37.5561 H              1 <1>                0.0000
     20 H20         27.4618  35.0574  38.7626 H              1 <1>                0.0000
     21 H21         26.0795  37.7780  38.8256 H              1 <1>                0.0000
     22 H22         25.3182  36.2375  38.3613 H              1 <1>                0.0000
     23 H23         24.8211  36.7993  40.7247 H              1 <1>                0.0000
     24 H24         25.8035  35.3192  40.6129 H              1 <1>                0.0000
     25 H25         26.8687  38.1248  41.1706 H              1 <1>                0.0000
     26 H26         28.2510  35.4041  41.1076 H              1 <1>                0.0000
     27 H27         29.0124  36.9446  41.5719 H              1 <1>                0.0000
     28 H28         26.4214  35.7696  42.8544 H              1 <1>                0.0000
     29 H29         27.3958  37.0210  43.3009 H              1 <1>                0.0000
     30 H30         25.7895  37.2798  43.0407 H              1 <1>                0.0000
@<TRIPOS>BOND
    1    1    2 1     
    2    1   13 1     
    3    1   14 1     
    4    1   15 1     
    5    2    3 1     
    6    3    4 2     
    7    3    5 1     
    8    5    6 1     
    9    5   16 1     
   10    5   17 1     
   11    6    7 1     
   12    6   12 1     
   13    6   18 1     
   14    7    8 1     
   15    7   19 1     
   16    7   20 1     
   17    8    9 1     
   18    8   21 1     
   19    8   22 1     
   20    9   10 1     
   21    9   23 1     
   22    9   24 1     
   23   10   11 1     
   24   10   12 1     
   25   10   25 1     
   26   11   28 1     
   27   11   29 1     
   28   11   30 1     
   29   12   26 1     
   30   12   27 1     
@<TRIPOS>SUBSTRUCTURE
      1 ****           1
@<TRIPOS>SET
DONOR_HYDROGENS      STATIC     ATOMS    <user>   **** ""
3 28 29 30
ATOM$RED        STATIC     ATOMS    COLORGROUP SYSTEM
3 28 29 30
@<TRIPOS>COMMENT
> <Gold.Version>
2022.2.0

> <Gold.Id.Protein>
1qkm|1qkm_protein|mol2

> <Gold.Protein.RotatedTorsions>
[  496  491  490  487 ] final   35.28 input  -89.99 | X-H torsion

> <Gold.Protein.ActiveResidues>
 MET295  LEU298  THR299  LEU301  ALA302  GLU305  TRP335  MET336  LEU339  MET340 
 GLY342  LEU343  ARG346  PHE356  ILE373  ILE376  PHE377  LEU380  LYS471  GLY472 
 MET473  HIS475  LEU476  LEU477  ASN478  MET479  VAL484  VAL487 

> <Gold.Protein.RotatedAtoms>
   36.3751   33.6735   42.3833 H   0  0  0  0  0  0  0  0  0  0  0  0  # atno 496  bound_to 491 

> <Gold.Score>
     Score     S(PLP)   S(hbond)     S(cho)   S(metal)  DE(clash)   DE(tors)     intcor
     41.87     -36.05       1.98       0.00       0.00       0.00       0.07       0.00

> <Gold.PLP.Fitness>
41.8668

> <Gold.PLP.PLP>
-36.0544

> <Gold.PLP.part.hbond>
-0.8588

> <Gold.PLP.part.metal>
0.0000

> <Gold.PLP.part.buried>
-2.2275

> <Gold.PLP.part.nonpolar>
-33.5408

> <Gold.PLP.part.repulsive>
0.0802

> <Gold.PLP.ligand.clash>
0.0000

> <Gold.PLP.ligand.torsion>
0.0705

> <Gold.PLP.Chemscore.Hbond>
1.9840

> <Gold.PLP.Chemscore.CHOScore>
0.0000

> <Gold.PLP.Chemscore.Metal>
0.0000

> <Gold.Chemscore.Hbonds>
donor molecule, donor type, donor heavy atom, donor atom, acceptor molecule, acceptor atom, score
      L1  H    11    28       P1   582  1.98

> <Gold.PLP.Chemscore.Internal.Correction>
0.0014

