#       Name:                EN300-33038650_i004
#       Creating user name   aseyller
#       Creation time:       Sat Apr 22 06:22:47 2023


#       File generated by GOLD software.
#

@<TRIPOS>MOLECULE
EN300-33038650_i004|amine_3|mol2|3696|dock2
    30    30     1
SMALL
USER_CHARGES


@<TRIPOS>ATOM
      1 C1          32.8410  36.0862  37.3253 C.3            1 <1>                0.0000
      2 O2          32.0490  35.4749  38.3775 O.3            1 <1>                0.0000
      3 C3          30.8509  36.0224  38.6347 C.2            1 <1>                0.0000
      4 O4          30.4556  36.9508  37.9699 O.2            1 <1>                0.0000
      5 C5          29.9984  35.4794  39.7525 C.3            1 <1>                0.0000
      6 C6          28.6967  36.2790  39.8360 C.3            1 <1>                0.0000
      7 C7          27.7075  35.7532  38.7939 C.3            1 <1>                0.0000
      8 C8          26.4058  36.5528  38.8772 C.3            1 <1>                0.0000
      9 C9          25.8027  36.4009  40.2751 C.3            1 <1>                0.0000
     10 C10         26.7918  36.9267  41.3172 C.3            1 <1>                0.0000
     11 N11         26.2128  36.7810  42.6594 N.4            1 <1>                1.0000
     12 C12         28.0936  36.1272  41.2339 C.3            1 <1>                0.0000
     13 H13         32.2914  36.0428  36.3850 H              1 <1>                0.0000
     14 H14         33.0432  37.1265  37.5803 H              1 <1>                0.0000
     15 H15         33.7832  35.5481  37.2203 H              1 <1>                0.0000
     16 H16         29.7695  34.4315  39.5587 H              1 <1>                0.0000
     17 H17         30.5384  35.5648  40.6956 H              1 <1>                0.0000
     18 H18         28.9037  37.3314  39.6419 H              1 <1>                0.0000
     19 H19         28.1372  35.8613  37.7980 H              1 <1>                0.0000
     20 H20         27.5006  34.7008  38.9880 H              1 <1>                0.0000
     21 H21         26.6127  37.6052  38.6833 H              1 <1>                0.0000
     22 H22         25.7011  36.1782  38.1348 H              1 <1>                0.0000
     23 H23         24.8753  36.9706  40.3345 H              1 <1>                0.0000
     24 H24         25.5957  35.3485  40.4692 H              1 <1>                0.0000
     25 H25         26.9988  37.9792  41.1232 H              1 <1>                0.0000
     26 H26         27.8866  35.0748  41.4279 H              1 <1>                0.0000
     27 H27         28.7983  36.5018  41.9763 H              1 <1>                0.0000
     28 H28         26.3713  35.8423  42.9940 H              1 <1>                0.0000
     29 H29         26.6486  37.4398  43.2872 H              1 <1>                0.0000
     30 H30         25.2208  36.9606  42.6190 H              1 <1>                0.0000
@<TRIPOS>BOND
    1    1    2 1     
    2    1   13 1     
    3    1   14 1     
    4    1   15 1     
    5    2    3 1     
    6    3    4 2     
    7    3    5 1     
    8    5    6 1     
    9    5   16 1     
   10    5   17 1     
   11    6    7 1     
   12    6   12 1     
   13    6   18 1     
   14    7    8 1     
   15    7   19 1     
   16    7   20 1     
   17    8    9 1     
   18    8   21 1     
   19    8   22 1     
   20    9   10 1     
   21    9   23 1     
   22    9   24 1     
   23   10   11 1     
   24   10   12 1     
   25   10   25 1     
   26   11   28 1     
   27   11   29 1     
   28   11   30 1     
   29   12   26 1     
   30   12   27 1     
@<TRIPOS>SUBSTRUCTURE
      1 ****           1
@<TRIPOS>SET
DONOR_HYDROGENS      STATIC     ATOMS    <user>   **** ""
3 28 29 30
ATOM$RED        STATIC     ATOMS    COLORGROUP SYSTEM
3 28 29 30
@<TRIPOS>COMMENT
> <Gold.Version>
2022.2.0

> <Gold.Id.Protein>
1qkm|1qkm_protein|mol2

> <Gold.Protein.RotatedTorsions>
[  496  491  490  487 ] final   14.78 input  -89.99 | X-H torsion

> <Gold.Protein.ActiveResidues>
 MET295  LEU298  THR299  LEU301  ALA302  GLU305  TRP335  MET336  LEU339  MET340 
 GLY342  LEU343  ARG346  PHE356  ILE373  ILE376  PHE377  LEU380  LYS471  GLY472 
 MET473  HIS475  LEU476  LEU477  ASN478  MET479  VAL484  VAL487 

> <Gold.Protein.RotatedAtoms>
   36.2852   33.9932   42.3339 H   0  0  0  0  0  0  0  0  0  0  0  0  # atno 496  bound_to 491 

> <Gold.Score>
     Score     S(PLP)   S(hbond)     S(cho)   S(metal)  DE(clash)   DE(tors)     intcor
     45.12     -39.57       2.00       0.00       0.00       0.00       0.23       0.00

> <Gold.PLP.Fitness>
45.1184

> <Gold.PLP.PLP>
-39.5696

> <Gold.PLP.part.hbond>
-0.8738

> <Gold.PLP.part.metal>
0.0000

> <Gold.PLP.part.buried>
-2.6666

> <Gold.PLP.part.nonpolar>
-36.8785

> <Gold.PLP.part.repulsive>
0.1807

> <Gold.PLP.ligand.clash>
0.0000

> <Gold.PLP.ligand.torsion>
0.2264

> <Gold.PLP.Chemscore.Hbond>
2.0000

> <Gold.PLP.Chemscore.CHOScore>
0.0000

> <Gold.PLP.Chemscore.Metal>
0.0000

> <Gold.Chemscore.Hbonds>
donor molecule, donor type, donor heavy atom, donor atom, acceptor molecule, acceptor atom, score
      L1  H    11    28       P1   582  2.00

> <Gold.PLP.Chemscore.Internal.Correction>
0.0017

