#       Name:                EN300-33038650_i004
#       Creating user name   aseyller
#       Creation time:       Sat Apr 22 06:22:53 2023


#       File generated by GOLD software.
#

@<TRIPOS>MOLECULE
EN300-33038650_i004|amine_3|mol2|3696|dock15
    30    30     1
SMALL
USER_CHARGES


@<TRIPOS>ATOM
      1 C1          30.9589  39.6098  36.4037 C.3            1 <1>                0.0000
      2 O2          29.7503  39.4673  37.1956 O.3            1 <1>                0.0000
      3 C3          29.0132  38.3646  36.9896 C.2            1 <1>                0.0000
      4 O4          29.4506  37.4629  36.3145 O.2            1 <1>                0.0000
      5 C5          27.6402  38.2510  37.6004 C.3            1 <1>                0.0000
      6 C6          27.6234  37.0987  38.6067 C.3            1 <1>                0.0000
      7 C7          28.8942  37.1460  39.4574 C.3            1 <1>                0.0000
      8 C8          28.8775  35.9937  40.4638 C.3            1 <1>                0.0000
      9 C9          27.6519  36.1259  41.3701 C.3            1 <1>                0.0000
     10 C10         26.3811  36.0787  40.5194 C.3            1 <1>                0.0000
     11 N11         25.2044  36.2056  41.3896 N.4            1 <1>                1.0000
     12 C12         26.3978  37.2309  39.5130 C.3            1 <1>                0.0000
     13 H13         31.6253  38.7706  36.6036 H              1 <1>                0.0000
     14 H14         30.7001  39.6240  35.3450 H              1 <1>                0.0000
     15 H15         31.4590  40.5416  36.6681 H              1 <1>                0.0000
     16 H16         27.3909  39.1820  38.1096 H              1 <1>                0.0000
     17 H17         26.9083  38.0589  36.8158 H              1 <1>                0.0000
     18 H18         27.5792  36.1499  38.0720 H              1 <1>                0.0000
     19 H19         29.7674  37.0518  38.8118 H              1 <1>                0.0000
     20 H20         28.9384  38.0948  39.9922 H              1 <1>                0.0000
     21 H21         28.8332  35.0449  39.9291 H              1 <1>                0.0000
     22 H22         29.7829  36.0274  41.0699 H              1 <1>                0.0000
     23 H23         27.6400  35.3050  42.0871 H              1 <1>                0.0000
     24 H24         27.6961  37.0747  41.9048 H              1 <1>                0.0000
     25 H25         26.3369  35.1298  39.9848 H              1 <1>                0.0000
     26 H26         26.4420  38.1797  40.0478 H              1 <1>                0.0000
     27 H27         25.4924  37.1973  38.9070 H              1 <1>                0.0000
     28 H28         25.0364  37.1805  41.5881 H              1 <1>                0.0000
     29 H29         24.3988  35.8133  40.9254 H              1 <1>                0.0000
     30 H30         25.3694  35.7102  42.2529 H              1 <1>                0.0000
@<TRIPOS>BOND
    1    1    2 1     
    2    1   13 1     
    3    1   14 1     
    4    1   15 1     
    5    2    3 1     
    6    3    4 2     
    7    3    5 1     
    8    5    6 1     
    9    5   16 1     
   10    5   17 1     
   11    6    7 1     
   12    6   12 1     
   13    6   18 1     
   14    7    8 1     
   15    7   19 1     
   16    7   20 1     
   17    8    9 1     
   18    8   21 1     
   19    8   22 1     
   20    9   10 1     
   21    9   23 1     
   22    9   24 1     
   23   10   11 1     
   24   10   12 1     
   25   10   25 1     
   26   11   28 1     
   27   11   29 1     
   28   11   30 1     
   29   12   26 1     
   30   12   27 1     
@<TRIPOS>SUBSTRUCTURE
      1 ****           1
@<TRIPOS>SET
DONOR_HYDROGENS      STATIC     ATOMS    <user>   **** ""
3 28 29 30
ATOM$RED        STATIC     ATOMS    COLORGROUP SYSTEM
3 28 29 30
@<TRIPOS>COMMENT
> <Gold.Version>
2022.2.0

> <Gold.Id.Protein>
1qkm|1qkm_protein|mol2

> <Gold.Protein.RotatedTorsions>
[  496  491  490  487 ] final  -29.29 input  -89.99 | X-H torsion

> <Gold.Protein.ActiveResidues>
 MET295  LEU298  THR299  LEU301  ALA302  GLU305  TRP335  MET336  LEU339  MET340 
 GLY342  LEU343  ARG346  PHE356  ILE373  ILE376  PHE377  LEU380  LYS471  GLY472 
 MET473  HIS475  LEU476  LEU477  ASN478  MET479  VAL484  VAL487 

> <Gold.Protein.RotatedAtoms>
   36.3120   34.5646   41.9174 H   0  0  0  0  0  0  0  0  0  0  0  0  # atno 496  bound_to 491 

> <Gold.Score>
     Score     S(PLP)   S(hbond)     S(cho)   S(metal)  DE(clash)   DE(tors)     intcor
     46.32     -38.91       2.63       0.00       0.00       0.00       0.24       0.00

> <Gold.PLP.Fitness>
46.3237

> <Gold.PLP.PLP>
-38.9089

> <Gold.PLP.part.hbond>
-1.6772

> <Gold.PLP.part.metal>
0.0000

> <Gold.PLP.part.buried>
-4.1084

> <Gold.PLP.part.nonpolar>
-33.3876

> <Gold.PLP.part.repulsive>
0.1314

> <Gold.PLP.ligand.clash>
0.0000

> <Gold.PLP.ligand.torsion>
0.2439

> <Gold.PLP.Chemscore.Hbond>
2.6338

> <Gold.PLP.Chemscore.CHOScore>
0.0000

> <Gold.PLP.Chemscore.Metal>
0.0000

> <Gold.Chemscore.Hbonds>
donor molecule, donor type, donor heavy atom, donor atom, acceptor molecule, acceptor atom, score
      L1  H    11    29       P1  1131  0.63
      L1  H    11    30       P1   582  2.00

> <Gold.PLP.Chemscore.Internal.Correction>
0.0014

