#       Name:                EN300-33038650_i004
#       Creating user name   aseyller
#       Creation time:       Sat Apr 22 06:22:46 2023


#       File generated by GOLD software.
#

@<TRIPOS>MOLECULE
EN300-33038650_i004|amine_3|mol2|3696|dock1
    30    30     1
SMALL
USER_CHARGES


@<TRIPOS>ATOM
      1 C1          32.8260  36.1064  37.8869 C.3            1 <1>                0.0000
      2 O2          31.7666  35.4491  38.6310 O.3            1 <1>                0.0000
      3 C3          30.5965  36.0994  38.7287 C.2            1 <1>                0.0000
      4 O4          30.4912  37.2221  38.2944 O.2            1 <1>                0.0000
      5 C5          29.4140  35.4294  39.3799 C.3            1 <1>                0.0000
      6 C6          28.3016  36.4570  39.5975 C.3            1 <1>                0.0000
      7 C7          27.7129  36.8653  38.2456 C.3            1 <1>                0.0000
      8 C8          26.6004  37.8929  38.4631 C.3            1 <1>                0.0000
      9 C9          25.5020  37.2788  39.3333 C.3            1 <1>                0.0000
     10 C10         26.0907  36.8705  40.6851 C.3            1 <1>                0.0000
     11 N11         25.0360  36.2810  41.5206 N.4            1 <1>                1.0000
     12 C12         27.2031  35.8429  40.4676 C.3            1 <1>                0.0000
     13 H13         32.4985  36.2755  36.8610 H              1 <1>                0.0000
     14 H14         33.0604  37.0621  38.3557 H              1 <1>                0.0000
     15 H15         33.7145  35.4750  37.8850 H              1 <1>                0.0000
     16 H16         29.0491  34.6298  38.7353 H              1 <1>                0.0000
     17 H17         29.7164  35.0123  40.3405 H              1 <1>                0.0000
     18 H18         28.7111  37.3358  40.0957 H              1 <1>                0.0000
     19 H19         28.4955  37.3028  37.6257 H              1 <1>                0.0000
     20 H20         27.3034  35.9865  37.7474 H              1 <1>                0.0000
     21 H21         27.0099  38.7716  38.9614 H              1 <1>                0.0000
     22 H22         26.1810  38.1838  37.5000 H              1 <1>                0.0000
     23 H23         24.7094  38.0109  39.4883 H              1 <1>                0.0000
     24 H24         25.0925  36.4001  38.8350 H              1 <1>                0.0000
     25 H25         26.5001  37.7493  41.1834 H              1 <1>                0.0000
     26 H26         26.7936  34.9642  39.9693 H              1 <1>                0.0000
     27 H27         27.6226  35.5521  41.4307 H              1 <1>                0.0000
     28 H28         25.4567  35.7613  42.2763 H              1 <1>                0.0000
     29 H29         24.4567  37.0153  41.8991 H              1 <1>                0.0000
     30 H30         24.4702  35.6612  40.9604 H              1 <1>                0.0000
@<TRIPOS>BOND
    1    1    2 1     
    2    1   13 1     
    3    1   14 1     
    4    1   15 1     
    5    2    3 1     
    6    3    4 2     
    7    3    5 1     
    8    5    6 1     
    9    5   16 1     
   10    5   17 1     
   11    6    7 1     
   12    6   12 1     
   13    6   18 1     
   14    7    8 1     
   15    7   19 1     
   16    7   20 1     
   17    8    9 1     
   18    8   21 1     
   19    8   22 1     
   20    9   10 1     
   21    9   23 1     
   22    9   24 1     
   23   10   11 1     
   24   10   12 1     
   25   10   25 1     
   26   11   28 1     
   27   11   29 1     
   28   11   30 1     
   29   12   26 1     
   30   12   27 1     
@<TRIPOS>SUBSTRUCTURE
      1 ****           1
@<TRIPOS>SET
DONOR_HYDROGENS      STATIC     ATOMS    <user>   **** ""
3 28 29 30
ATOM$RED        STATIC     ATOMS    COLORGROUP SYSTEM
3 28 29 30
@<TRIPOS>COMMENT
> <Gold.Version>
2022.2.0

> <Gold.Id.Protein>
1qkm|1qkm_protein|mol2

> <Gold.Protein.RotatedTorsions>
[  496  491  490  487 ] final  -85.20 input  -89.99 | X-H torsion

> <Gold.Protein.ActiveResidues>
 MET295  LEU298  THR299  LEU301  ALA302  GLU305  TRP335  MET336  LEU339  MET340 
 GLY342  LEU343  ARG346  PHE356  ILE373  ILE376  PHE377  LEU380  LYS471  GLY472 
 MET473  HIS475  LEU476  LEU477  ASN478  MET479  VAL484  VAL487 

> <Gold.Protein.RotatedAtoms>
   36.7132   34.6819   41.1381 H   0  0  0  0  0  0  0  0  0  0  0  0  # atno 496  bound_to 491 

> <Gold.Score>
     Score     S(PLP)   S(hbond)     S(cho)   S(metal)  DE(clash)   DE(tors)     intcor
     48.61     -42.22       2.24       0.00       0.00       0.00       0.18       0.02

> <Gold.PLP.Fitness>
48.6105

> <Gold.PLP.PLP>
-42.2176

> <Gold.PLP.part.hbond>
-1.8797

> <Gold.PLP.part.metal>
0.0000

> <Gold.PLP.part.buried>
-4.9482

> <Gold.PLP.part.nonpolar>
-35.9466

> <Gold.PLP.part.repulsive>
0.6234

> <Gold.PLP.ligand.clash>
0.0000

> <Gold.PLP.ligand.torsion>
0.1762

> <Gold.PLP.Chemscore.Hbond>
2.2431

> <Gold.PLP.Chemscore.CHOScore>
0.0000

> <Gold.PLP.Chemscore.Metal>
0.0000

> <Gold.Chemscore.Hbonds>
donor molecule, donor type, donor heavy atom, donor atom, acceptor molecule, acceptor atom, score
      L1  H    11    28       P1   582  2.00
      L1  H    11    30       P1  1131  0.24

> <Gold.PLP.Chemscore.Internal.Correction>
0.0160

