#       Name:                EN300-33038650_i004
#       Creating user name   aseyller
#       Creation time:       Sat Apr 22 06:22:51 2023


#       File generated by GOLD software.
#

@<TRIPOS>MOLECULE
EN300-33038650_i004|amine_3|mol2|3696|dock11
    30    30     1
SMALL
USER_CHARGES


@<TRIPOS>ATOM
      1 C1          31.1367  37.7405  35.3430 C.3            1 <1>                0.0000
      2 O2          29.8538  37.4740  35.9685 O.3            1 <1>                0.0000
      3 C3          29.2518  38.5021  36.5867 C.2            1 <1>                0.0000
      4 O4          29.7375  39.6073  36.5332 O.2            1 <1>                0.0000
      5 C5          27.9703  38.2782  37.3474 C.3            1 <1>                0.0000
      6 C6          28.1114  37.0366  38.2301 C.3            1 <1>                0.0000
      7 C7          29.4818  37.0476  38.9104 C.3            1 <1>                0.0000
      8 C8          29.6231  35.8061  39.7933 C.3            1 <1>                0.0000
      9 C9          28.5248  35.8101  40.8585 C.3            1 <1>                0.0000
     10 C10         27.1544  35.7991  40.1782 C.3            1 <1>                0.0000
     11 N11         26.0999  35.8029  41.2009 N.4            1 <1>                1.0000
     12 C12         27.0131  37.0406  39.2953 C.3            1 <1>                0.0000
     13 H13         31.0164  38.5105  34.5809 H              1 <1>                0.0000
     14 H14         31.8446  38.0836  36.0975 H              1 <1>                0.0000
     15 H15         31.5124  36.8276  34.8807 H              1 <1>                0.0000
     16 H16         27.7622  39.1467  37.9722 H              1 <1>                0.0000
     17 H17         27.1508  38.1323  36.6435 H              1 <1>                0.0000
     18 H18         28.0182  36.1412  37.6155 H              1 <1>                0.0000
     19 H19         30.2642  37.0448  38.1516 H              1 <1>                0.0000
     20 H20         29.5751  37.9430  39.5251 H              1 <1>                0.0000
     21 H21         29.5297  34.9107  39.1787 H              1 <1>                0.0000
     22 H22         30.5993  35.8140  40.2779 H              1 <1>                0.0000
     23 H23         28.6254  34.9256  41.4874 H              1 <1>                0.0000
     24 H24         28.6180  36.7055  41.4731 H              1 <1>                0.0000
     25 H25         27.0611  34.9037  39.5636 H              1 <1>                0.0000
     26 H26         27.1065  37.9359  39.9100 H              1 <1>                0.0000
     27 H27         26.0369  37.0327  38.8107 H              1 <1>                0.0000
     28 H28         26.4335  35.3340  42.0298 H              1 <1>                0.0000
     29 H29         25.8555  36.7551  41.4285 H              1 <1>                0.0000
     30 H30         25.2864  35.3223  40.8471 H              1 <1>                0.0000
@<TRIPOS>BOND
    1    1    2 1     
    2    1   13 1     
    3    1   14 1     
    4    1   15 1     
    5    2    3 1     
    6    3    4 2     
    7    3    5 1     
    8    5    6 1     
    9    5   16 1     
   10    5   17 1     
   11    6    7 1     
   12    6   12 1     
   13    6   18 1     
   14    7    8 1     
   15    7   19 1     
   16    7   20 1     
   17    8    9 1     
   18    8   21 1     
   19    8   22 1     
   20    9   10 1     
   21    9   23 1     
   22    9   24 1     
   23   10   11 1     
   24   10   12 1     
   25   10   25 1     
   26   11   28 1     
   27   11   29 1     
   28   11   30 1     
   29   12   26 1     
   30   12   27 1     
@<TRIPOS>SUBSTRUCTURE
      1 ****           1
@<TRIPOS>SET
DONOR_HYDROGENS      STATIC     ATOMS    <user>   **** ""
3 28 29 30
ATOM$RED        STATIC     ATOMS    COLORGROUP SYSTEM
3 28 29 30
@<TRIPOS>COMMENT
> <Gold.Version>
2022.2.0

> <Gold.Id.Protein>
1qkm|1qkm_protein|mol2

> <Gold.Protein.RotatedTorsions>
[  496  491  490  487 ] final  -50.18 input  -89.99 | X-H torsion

> <Gold.Protein.ActiveResidues>
 MET295  LEU298  THR299  LEU301  ALA302  GLU305  TRP335  MET336  LEU339  MET340 
 GLY342  LEU343  ARG346  PHE356  ILE373  ILE376  PHE377  LEU380  LYS471  GLY472 
 MET473  HIS475  LEU476  LEU477  ASN478  MET479  VAL484  VAL487 

> <Gold.Protein.RotatedAtoms>
   36.4258   34.7049   41.6271 H   0  0  0  0  0  0  0  0  0  0  0  0  # atno 496  bound_to 491 

> <Gold.Score>
     Score     S(PLP)   S(hbond)     S(cho)   S(metal)  DE(clash)   DE(tors)     intcor
     42.41     -37.09       1.98       0.00       0.00       0.00       0.32       0.00

> <Gold.PLP.Fitness>
42.4066

> <Gold.PLP.PLP>
-37.0930

> <Gold.PLP.part.hbond>
-1.0000

> <Gold.PLP.part.metal>
0.0000

> <Gold.PLP.part.buried>
-3.4023

> <Gold.PLP.part.nonpolar>
-33.2075

> <Gold.PLP.part.repulsive>
0.0486

> <Gold.PLP.ligand.clash>
0.0000

> <Gold.PLP.ligand.torsion>
0.3199

> <Gold.PLP.Chemscore.Hbond>
1.9840

> <Gold.PLP.Chemscore.CHOScore>
0.0000

> <Gold.PLP.Chemscore.Metal>
0.0000

> <Gold.Chemscore.Hbonds>
donor molecule, donor type, donor heavy atom, donor atom, acceptor molecule, acceptor atom, score
      L1  H    11    28       P1   582  1.98

> <Gold.PLP.Chemscore.Internal.Correction>
0.0014

