#       Name:                EN300-33038650_i004
#       Creating user name   aseyller
#       Creation time:       Sat Apr 22 06:22:52 2023


#       File generated by GOLD software.
#

@<TRIPOS>MOLECULE
EN300-33038650_i004|amine_3|mol2|3696|dock13
    30    30     1
SMALL
USER_CHARGES


@<TRIPOS>ATOM
      1 C1          30.5514  39.8999  36.4106 C.3            1 <1>                0.0000
      2 O2          29.3831  39.0380  36.3961 O.3            1 <1>                0.0000
      3 C3          29.3500  38.0410  37.2942 C.2            1 <1>                0.0000
      4 O4          30.3218  37.8072  37.9732 O.2            1 <1>                0.0000
      5 C5          28.1011  37.2133  37.4558 C.3            1 <1>                0.0000
      6 C6          27.5631  37.3743  38.8790 C.3            1 <1>                0.0000
      7 C7          26.0345  37.4277  38.8434 C.3            1 <1>                0.0000
      8 C8          25.4964  37.5886  40.2665 C.3            1 <1>                0.0000
      9 C9          25.9455  36.4001  41.1190 C.3            1 <1>                0.0000
     10 C10         27.4741  36.3467  41.1546 C.3            1 <1>                0.0000
     11 N11         27.9053  35.2056  41.9730 N.4            1 <1>                1.0000
     12 C12         28.0122  36.1858  39.7314 C.3            1 <1>                0.0000
     13 H13         30.6361  40.3808  37.3851 H              1 <1>                0.0000
     14 H14         31.4445  39.3047  36.2203 H              1 <1>                0.0000
     15 H15         30.4508  40.6616  35.6373 H              1 <1>                0.0000
     16 H16         27.3482  37.5487  36.7425 H              1 <1>                0.0000
     17 H17         28.3340  36.1645  37.2719 H              1 <1>                0.0000
     18 H18         27.9489  38.2977  39.3110 H              1 <1>                0.0000
     19 H19         25.7145  38.2744  38.2360 H              1 <1>                0.0000
     20 H20         25.6487  36.5043  38.4113 H              1 <1>                0.0000
     21 H21         25.8823  38.5119  40.6986 H              1 <1>                0.0000
     22 H22         24.4074  37.6267  40.2411 H              1 <1>                0.0000
     23 H23         25.5622  36.5148  42.1329 H              1 <1>                0.0000
     24 H24         25.5597  35.4767  40.6869 H              1 <1>                0.0000
     25 H25         27.8599  37.2701  41.5867 H              1 <1>                0.0000
     26 H26         27.6263  35.2625  39.2994 H              1 <1>                0.0000
     27 H27         29.1012  36.1478  39.7568 H              1 <1>                0.0000
     28 H28         27.3434  35.1606  42.8100 H              1 <1>                0.0000
     29 H29         27.7931  34.3523  41.4463 H              1 <1>                0.0000
     30 H30         28.8755  35.3201  42.2252 H              1 <1>                0.0000
@<TRIPOS>BOND
    1    1    2 1     
    2    1   13 1     
    3    1   14 1     
    4    1   15 1     
    5    2    3 1     
    6    3    4 2     
    7    3    5 1     
    8    5    6 1     
    9    5   16 1     
   10    5   17 1     
   11    6    7 1     
   12    6   12 1     
   13    6   18 1     
   14    7    8 1     
   15    7   19 1     
   16    7   20 1     
   17    8    9 1     
   18    8   21 1     
   19    8   22 1     
   20    9   10 1     
   21    9   23 1     
   22    9   24 1     
   23   10   11 1     
   24   10   12 1     
   25   10   25 1     
   26   11   28 1     
   27   11   29 1     
   28   11   30 1     
   29   12   26 1     
   30   12   27 1     
@<TRIPOS>SUBSTRUCTURE
      1 ****           1
@<TRIPOS>SET
DONOR_HYDROGENS      STATIC     ATOMS    <user>   **** ""
3 28 29 30
ATOM$RED        STATIC     ATOMS    COLORGROUP SYSTEM
3 28 29 30
@<TRIPOS>COMMENT
> <Gold.Version>
2022.2.0

> <Gold.Id.Protein>
1qkm|1qkm_protein|mol2

> <Gold.Protein.RotatedTorsions>
[  496  491  490  487 ] final   18.06 input  -89.99 | X-H torsion

> <Gold.Protein.ActiveResidues>
 MET295  LEU298  THR299  LEU301  ALA302  GLU305  TRP335  MET336  LEU339  MET340 
 GLY342  LEU343  ARG346  PHE356  ILE373  ILE376  PHE377  LEU380  LYS471  GLY472 
 MET473  HIS475  LEU476  LEU477  ASN478  MET479  VAL484  VAL487 

> <Gold.Protein.RotatedAtoms>
   36.2955   33.9422   42.3488 H   0  0  0  0  0  0  0  0  0  0  0  0  # atno 496  bound_to 491 

> <Gold.Score>
     Score     S(PLP)   S(hbond)     S(cho)   S(metal)  DE(clash)   DE(tors)     intcor
     43.62     -38.81       2.00       0.00       0.00       0.00       0.59       0.00

> <Gold.PLP.Fitness>
43.6217

> <Gold.PLP.PLP>
-38.8095

> <Gold.PLP.part.hbond>
-1.0000

> <Gold.PLP.part.metal>
0.0000

> <Gold.PLP.part.buried>
-4.0642

> <Gold.PLP.part.nonpolar>
-34.0997

> <Gold.PLP.part.repulsive>
0.0849

> <Gold.PLP.ligand.clash>
0.0000

> <Gold.PLP.ligand.torsion>
0.5946

> <Gold.PLP.Chemscore.Hbond>
2.0000

> <Gold.PLP.Chemscore.CHOScore>
0.0000

> <Gold.PLP.Chemscore.Metal>
0.0000

> <Gold.Chemscore.Hbonds>
donor molecule, donor type, donor heavy atom, donor atom, acceptor molecule, acceptor atom, score
      L1  H    11    28       P1   582  2.00

> <Gold.PLP.Chemscore.Internal.Correction>
0.0014

