#       Name:                EN300-33038650_i004
#       Creating user name   aseyller
#       Creation time:       Sat Apr 22 06:22:47 2023


#       File generated by GOLD software.
#

@<TRIPOS>MOLECULE
EN300-33038650_i004|amine_3|mol2|3696|dock3
    30    30     1
SMALL
USER_CHARGES


@<TRIPOS>ATOM
      1 C1          29.5112  40.1725  36.3937 C.3            1 <1>                0.0000
      2 O2          29.2744  39.0441  37.2763 O.3            1 <1>                0.0000
      3 C3          30.0945  37.9891  37.1502 C.2            1 <1>                0.0000
      4 O4          30.9726  38.0024  36.3202 O.2            1 <1>                0.0000
      5 C5          29.9204  36.7882  38.0438 C.3            1 <1>                0.0000
      6 C6          28.7882  37.0524  39.0383 C.3            1 <1>                0.0000
      7 C7          27.4419  36.7943  38.3587 C.3            1 <1>                0.0000
      8 C8          26.3096  37.0584  39.3531 C.3            1 <1>                0.0000
      9 C9          26.4602  36.1261  40.5569 C.3            1 <1>                0.0000
     10 C10         27.8065  36.3842  41.2365 C.3            1 <1>                0.0000
     11 N11         27.9511  35.4891  42.3923 N.4            1 <1>                1.0000
     12 C12         28.9388  36.1201  40.2421 C.3            1 <1>                0.0000
     13 H13         30.5157  40.5608  36.5620 H              1 <1>                0.0000
     14 H14         29.4155  39.8494  35.3571 H              1 <1>                0.0000
     15 H15         28.7803  40.9545  36.5995 H              1 <1>                0.0000
     16 H16         29.6753  35.9165  37.4372 H              1 <1>                0.0000
     17 H17         30.8465  36.6032  38.5883 H              1 <1>                0.0000
     18 H18         28.8333  38.0886  39.3734 H              1 <1>                0.0000
     19 H19         27.3346  37.4585  37.5011 H              1 <1>                0.0000
     20 H20         27.3968  35.7581  38.0236 H              1 <1>                0.0000
     21 H21         26.3547  38.0946  39.6883 H              1 <1>                0.0000
     22 H22         25.3505  36.8746  38.8690 H              1 <1>                0.0000
     23 H23         25.6535  36.3143  41.2654 H              1 <1>                0.0000
     24 H24         26.4151  35.0899  40.2218 H              1 <1>                0.0000
     25 H25         27.8515  37.4204  41.5717 H              1 <1>                0.0000
     26 H26         28.8936  35.0839  39.9070 H              1 <1>                0.0000
     27 H27         29.8979  36.3039  40.7263 H              1 <1>                0.0000
     28 H28         28.3423  34.6095  42.0897 H              1 <1>                0.0000
     29 H29         28.5642  35.9137  43.0720 H              1 <1>                0.0000
     30 H30         27.0463  35.3290  42.8091 H              1 <1>                0.0000
@<TRIPOS>BOND
    1    1    2 1     
    2    1   13 1     
    3    1   14 1     
    4    1   15 1     
    5    2    3 1     
    6    3    4 2     
    7    3    5 1     
    8    5    6 1     
    9    5   16 1     
   10    5   17 1     
   11    6    7 1     
   12    6   12 1     
   13    6   18 1     
   14    7    8 1     
   15    7   19 1     
   16    7   20 1     
   17    8    9 1     
   18    8   21 1     
   19    8   22 1     
   20    9   10 1     
   21    9   23 1     
   22    9   24 1     
   23   10   11 1     
   24   10   12 1     
   25   10   25 1     
   26   11   28 1     
   27   11   29 1     
   28   11   30 1     
   29   12   26 1     
   30   12   27 1     
@<TRIPOS>SUBSTRUCTURE
      1 ****           1
@<TRIPOS>SET
DONOR_HYDROGENS      STATIC     ATOMS    <user>   **** ""
3 28 29 30
ATOM$RED        STATIC     ATOMS    COLORGROUP SYSTEM
3 28 29 30
@<TRIPOS>COMMENT
> <Gold.Version>
2022.2.0

> <Gold.Id.Protein>
1qkm|1qkm_protein|mol2

> <Gold.Protein.RotatedTorsions>
[  496  491  490  487 ] final  -21.05 input  -89.99 | X-H torsion

> <Gold.Protein.ActiveResidues>
 MET295  LEU298  THR299  LEU301  ALA302  GLU305  TRP335  MET336  LEU339  MET340 
 GLY342  LEU343  ARG346  PHE356  ILE373  ILE376  PHE377  LEU380  LYS471  GLY472 
 MET473  HIS475  LEU476  LEU477  ASN478  MET479  VAL484  VAL487 

> <Gold.Protein.RotatedAtoms>
   36.2837   34.4815   42.0207 H   0  0  0  0  0  0  0  0  0  0  0  0  # atno 496  bound_to 491 

> <Gold.Score>
     Score     S(PLP)   S(hbond)     S(cho)   S(metal)  DE(clash)   DE(tors)     intcor
     45.93     -40.36       2.00       0.00       0.00       0.00       0.21       0.00

> <Gold.PLP.Fitness>
45.9344

> <Gold.PLP.PLP>
-40.3596

> <Gold.PLP.part.hbond>
-0.9275

> <Gold.PLP.part.metal>
0.0000

> <Gold.PLP.part.buried>
-2.7347

> <Gold.PLP.part.nonpolar>
-36.3147

> <Gold.PLP.part.repulsive>
0.0854

> <Gold.PLP.ligand.clash>
0.0000

> <Gold.PLP.ligand.torsion>
0.2135

> <Gold.PLP.Chemscore.Hbond>
2.0000

> <Gold.PLP.Chemscore.CHOScore>
0.0000

> <Gold.PLP.Chemscore.Metal>
0.0000

> <Gold.Chemscore.Hbonds>
donor molecule, donor type, donor heavy atom, donor atom, acceptor molecule, acceptor atom, score
      L1  H    11    30       P1   582  2.00

> <Gold.PLP.Chemscore.Internal.Correction>
0.0017

