#       Name:                EN300-33038650_i004
#       Creating user name   aseyller
#       Creation time:       Sat Apr 22 06:22:46 2023


#       File generated by GOLD software.
#

@<TRIPOS>MOLECULE
EN300-33038650_i004
    30    30     1
SMALL
USER_CHARGES


@<TRIPOS>ATOM
      1 C1           4.9730   0.0722   0.1314 C.3            1 <1>                0.0000
      2 O2           3.8183  -0.7123  -0.2678 O.3            1 <1>                0.0000
      3 C3           2.6111  -0.2419   0.0829 C.2            1 <1>                0.0000
      4 O4           2.5222   0.7914   0.7030 O.2            1 <1>                0.0000
      5 C5           1.3666  -1.0023  -0.2967 C.3            1 <1>                0.0000
      6 C6           0.1352  -0.2556   0.2199 C.3            1 <1>                0.0000
      7 C7           0.0194   1.0925  -0.4943 C.3            1 <1>                0.0000
      8 C8          -1.2120   1.8393   0.0222 C.3            1 <1>                0.0000
      9 C9          -2.4659   1.0069  -0.2531 C.3            1 <1>                0.0000
     10 C10         -2.3501  -0.3412   0.4611 C.3            1 <1>                0.0000
     11 N11         -3.5540  -1.1404   0.1968 N.4            1 <1>                1.0000
     12 C12         -1.1187  -1.0880  -0.0554 C.3            1 <1>                0.0000
     13 H13          4.9068   1.0667  -0.3099 H              1 <1>                0.0000
     14 H14          4.9963   0.1576   1.2178 H              1 <1>                0.0000
     15 H15          5.8829  -0.4186  -0.2141 H              1 <1>                0.0000
     16 H16          1.3105  -1.0888  -1.3818 H              1 <1>                0.0000
     17 H17          1.4000  -1.9979   0.1459 H              1 <1>                0.0000
     18 H18          0.2337  -0.0910   1.2929 H              1 <1>                0.0000
     19 H19          0.9127   1.6855  -0.2982 H              1 <1>                0.0000
     20 H20         -0.0791   0.9279  -1.5673 H              1 <1>                0.0000
     21 H21         -1.1136   2.0038   1.0952 H              1 <1>                0.0000
     22 H22         -1.2945   2.7997  -0.4866 H              1 <1>                0.0000
     23 H23         -3.3432   1.5389   0.1149 H              1 <1>                0.0000
     24 H24         -2.5644   0.8423  -1.3261 H              1 <1>                0.0000
     25 H25         -2.2517  -0.1766   1.5341 H              1 <1>                0.0000
     26 H26         -1.2172  -1.2525  -1.1284 H              1 <1>                0.0000
     27 H27         -1.0362  -2.0484   0.4534 H              1 <1>                0.0000
     28 H28         -3.6452  -1.2928  -0.7965 H              1 <1>                0.0000
     29 H29         -3.4777  -2.0295   0.6678 H              1 <1>                0.0000
     30 H30         -4.3661  -0.6480   0.5374 H              1 <1>                0.0000
@<TRIPOS>BOND
    1    1    2 1     
    2    1   13 1     
    3    1   14 1     
    4    1   15 1     
    5    2    3 1     
    6    3    4 2     
    7    3    5 1     
    8    5    6 1     
    9    5   16 1     
   10    5   17 1     
   11    6    7 1     
   12    6   12 1     
   13    6   18 1     
   14    7    8 1     
   15    7   19 1     
   16    7   20 1     
   17    8    9 1     
   18    8   21 1     
   19    8   22 1     
   20    9   10 1     
   21    9   23 1     
   22    9   24 1     
   23   10   11 1     
   24   10   12 1     
   25   10   25 1     
   26   11   28 1     
   27   11   29 1     
   28   11   30 1     
   29   12   26 1     
   30   12   27 1     
@<TRIPOS>SUBSTRUCTURE
      1 ****           1
@<TRIPOS>SET
DONOR_HYDROGENS      STATIC     ATOMS    <user>   **** ""
3 28 29 30
ATOM$RED        STATIC     ATOMS    COLORGROUP SYSTEM
3 28 29 30
