#       Name:                EN300-33038650_i004
#       Creating user name   aseyller
#       Creation time:       Sat Apr 22 06:22:49 2023


#       File generated by GOLD software.
#

@<TRIPOS>MOLECULE
EN300-33038650_i004|amine_3|mol2|3696|dock6
    30    30     1
SMALL
USER_CHARGES


@<TRIPOS>ATOM
      1 C1          31.1308  37.0219  36.4460 C.3            1 <1>                0.0000
      2 O2          29.8170  36.8854  37.0488 O.3            1 <1>                0.0000
      3 C3          29.0168  37.9626  37.0168 C.2            1 <1>                0.0000
      4 O4          29.4100  38.9927  36.5223 O.2            1 <1>                0.0000
      5 C5          27.6282  37.8875  37.5973 C.3            1 <1>                0.0000
      6 C6          27.6006  36.8492  38.7207 C.3            1 <1>                0.0000
      7 C7          28.8233  37.0388  39.6206 C.3            1 <1>                0.0000
      8 C8          28.7958  36.0006  40.7441 C.3            1 <1>                0.0000
      9 C9          27.5211  36.1782  41.5715 C.3            1 <1>                0.0000
     10 C10         26.2984  35.9886  40.6716 C.3            1 <1>                0.0000
     11 N11         25.0745  36.1591  41.4660 N.4            1 <1>                1.0000
     12 C12         26.3259  37.0268  39.5481 C.3            1 <1>                0.0000
     13 H13         31.0222  37.2746  35.3913 H              1 <1>                0.0000
     14 H14         31.6833  37.8123  36.9540 H              1 <1>                0.0000
     15 H15         31.6733  36.0811  36.5400 H              1 <1>                0.0000
     16 H16         27.3480  38.8623  37.9964 H              1 <1>                0.0000
     17 H17         26.9236  37.5979  36.8176 H              1 <1>                0.0000
     18 H18         27.6179  35.8478  38.2905 H              1 <1>                0.0000
     19 H19         29.7314  36.9124  39.0312 H              1 <1>                0.0000
     20 H20         28.8059  38.0402  40.0508 H              1 <1>                0.0000
     21 H21         28.8130  34.9993  40.3139 H              1 <1>                0.0000
     22 H22         29.6669  36.1358  41.3852 H              1 <1>                0.0000
     23 H23         27.5015  35.4386  42.3719 H              1 <1>                0.0000
     24 H24         27.5037  37.1796  42.0017 H              1 <1>                0.0000
     25 H25         26.3157  34.9872  40.2415 H              1 <1>                0.0000
     26 H26         26.3086  38.0281  39.9784 H              1 <1>                0.0000
     27 H27         25.4548  36.8917  38.9070 H              1 <1>                0.0000
     28 H28         24.9800  37.1271  41.7347 H              1 <1>                0.0000
     29 H29         24.2750  35.8833  40.9156 H              1 <1>                0.0000
     30 H30         25.1277  35.5841  42.2933 H              1 <1>                0.0000
@<TRIPOS>BOND
    1    1    2 1     
    2    1   13 1     
    3    1   14 1     
    4    1   15 1     
    5    2    3 1     
    6    3    4 2     
    7    3    5 1     
    8    5    6 1     
    9    5   16 1     
   10    5   17 1     
   11    6    7 1     
   12    6   12 1     
   13    6   18 1     
   14    7    8 1     
   15    7   19 1     
   16    7   20 1     
   17    8    9 1     
   18    8   21 1     
   19    8   22 1     
   20    9   10 1     
   21    9   23 1     
   22    9   24 1     
   23   10   11 1     
   24   10   12 1     
   25   10   25 1     
   26   11   28 1     
   27   11   29 1     
   28   11   30 1     
   29   12   26 1     
   30   12   27 1     
@<TRIPOS>SUBSTRUCTURE
      1 ****           1
@<TRIPOS>SET
DONOR_HYDROGENS      STATIC     ATOMS    <user>   **** ""
3 28 29 30
ATOM$RED        STATIC     ATOMS    COLORGROUP SYSTEM
3 28 29 30
@<TRIPOS>COMMENT
> <Gold.Version>
2022.2.0

> <Gold.Id.Protein>
1qkm|1qkm_protein|mol2

> <Gold.Protein.RotatedTorsions>
[  496  491  490  487 ] final -154.88 input  -89.99 | X-H torsion

> <Gold.Protein.ActiveResidues>
 MET295  LEU298  THR299  LEU301  ALA302  GLU305  TRP335  MET336  LEU339  MET340 
 GLY342  LEU343  ARG346  PHE356  ILE373  ILE376  PHE377  LEU380  LYS471  GLY472 
 MET473  HIS475  LEU476  LEU477  ASN478  MET479  VAL484  VAL487 

> <Gold.Protein.RotatedAtoms>
   37.2545   33.8434   40.7316 H   0  0  0  0  0  0  0  0  0  0  0  0  # atno 496  bound_to 491 

> <Gold.Score>
     Score     S(PLP)   S(hbond)     S(cho)   S(metal)  DE(clash)   DE(tors)     intcor
     45.91     -38.14       2.91       0.00       0.00       0.00       0.48       0.00

> <Gold.PLP.Fitness>
45.9117

> <Gold.PLP.PLP>
-38.1424

> <Gold.PLP.part.hbond>
-1.9221

> <Gold.PLP.part.metal>
0.0000

> <Gold.PLP.part.buried>
-2.8075

> <Gold.PLP.part.nonpolar>
-34.0803

> <Gold.PLP.part.repulsive>
0.1499

> <Gold.PLP.ligand.clash>
0.0000

> <Gold.PLP.ligand.torsion>
0.4812

> <Gold.PLP.Chemscore.Hbond>
2.9100

> <Gold.PLP.Chemscore.CHOScore>
0.0000

> <Gold.PLP.Chemscore.Metal>
0.0000

> <Gold.Chemscore.Hbonds>
donor molecule, donor type, donor heavy atom, donor atom, acceptor molecule, acceptor atom, score
      L1  H    11    29       P1  1131  0.91
      L1  H    11    30       P1   582  2.00

> <Gold.PLP.Chemscore.Internal.Correction>
0.0017

