#       Name:                EN300-33038650_i004
#       Creating user name   aseyller
#       Creation time:       Sat Apr 22 06:22:51 2023


#       File generated by GOLD software.
#

@<TRIPOS>MOLECULE
EN300-33038650_i004|amine_3|mol2|3696|dock9
    30    30     1
SMALL
USER_CHARGES


@<TRIPOS>ATOM
      1 C1          28.1907  36.4158  40.9275 C.3            1 <1>                0.0000
      2 O2          29.4675  36.1327  40.2968 O.3            1 <1>                0.0000
      3 C3          29.6451  36.5906  39.0477 C.2            1 <1>                0.0000
      4 O4          28.7528  37.1838  38.4891 O.2            1 <1>                0.0000
      5 C5          30.9573  36.3650  38.3418 C.3            1 <1>                0.0000
      6 C6          30.8654  36.8996  36.9112 C.3            1 <1>                0.0000
      7 C7          30.6662  38.4162  36.9453 C.3            1 <1>                0.0000
      8 C8          30.5742  38.9509  35.5147 C.3            1 <1>                0.0000
      9 C9          31.8663  38.6229  34.7637 C.3            1 <1>                0.0000
     10 C10         32.0655  37.1064  34.7296 C.3            1 <1>                0.0000
     11 N11         33.3060  36.7915  34.0086 N.4            1 <1>                1.0000
     12 C12         32.1574  36.5717  36.1602 C.3            1 <1>                0.0000
     13 H13         28.0465  37.4946  40.9878 H              1 <1>                0.0000
     14 H14         27.3879  35.9744  40.3369 H              1 <1>                0.0000
     15 H15         28.1790  35.9912  41.9313 H              1 <1>                0.0000
     16 H16         31.7512  36.8881  38.8749 H              1 <1>                0.0000
     17 H17         31.1779  35.2978  38.3174 H              1 <1>                0.0000
     18 H18         30.0213  36.4336  36.4027 H              1 <1>                0.0000
     19 H19         29.7457  38.6498  37.4803 H              1 <1>                0.0000
     20 H20         31.5102  38.8821  37.4537 H              1 <1>                0.0000
     21 H21         29.7302  38.4849  35.0062 H              1 <1>                0.0000
     22 H22         30.4323  40.0313  35.5390 H              1 <1>                0.0000
     23 H23         31.8008  39.0038  33.7445 H              1 <1>                0.0000
     24 H24         32.7104  39.0889  35.2722 H              1 <1>                0.0000
     25 H25         31.2214  36.6404  34.2211 H              1 <1>                0.0000
     26 H26         33.0014  37.0377  36.6686 H              1 <1>                0.0000
     27 H27         32.2993  35.4912  36.1359 H              1 <1>                0.0000
     28 H28         33.0882  36.2515  33.1844 H              1 <1>                0.0000
     29 H29         33.7644  37.6485  33.7375 H              1 <1>                0.0000
     30 H30         33.9175  36.2581  34.6082 H              1 <1>                0.0000
@<TRIPOS>BOND
    1    1    2 1     
    2    1   13 1     
    3    1   14 1     
    4    1   15 1     
    5    2    3 1     
    6    3    4 2     
    7    3    5 1     
    8    5    6 1     
    9    5   16 1     
   10    5   17 1     
   11    6    7 1     
   12    6   12 1     
   13    6   18 1     
   14    7    8 1     
   15    7   19 1     
   16    7   20 1     
   17    8    9 1     
   18    8   21 1     
   19    8   22 1     
   20    9   10 1     
   21    9   23 1     
   22    9   24 1     
   23   10   11 1     
   24   10   12 1     
   25   10   25 1     
   26   11   28 1     
   27   11   29 1     
   28   11   30 1     
   29   12   26 1     
   30   12   27 1     
@<TRIPOS>SUBSTRUCTURE
      1 ****           1
@<TRIPOS>SET
DONOR_HYDROGENS      STATIC     ATOMS    <user>   **** ""
3 28 29 30
ATOM$RED        STATIC     ATOMS    COLORGROUP SYSTEM
3 28 29 30
@<TRIPOS>COMMENT
> <Gold.Version>
2022.2.0

> <Gold.Id.Protein>
1qkm|1qkm_protein|mol2

> <Gold.Protein.RotatedTorsions>
[  496  491  490  487 ] final  139.51 input  -89.99 | X-H torsion

> <Gold.Protein.ActiveResidues>
 MET295  LEU298  THR299  LEU301  ALA302  GLU305  TRP335  MET336  LEU339  MET340 
 GLY342  LEU343  ARG346  PHE356  ILE373  ILE376  PHE377  LEU380  LYS471  GLY472 
 MET473  HIS475  LEU476  LEU477  ASN478  MET479  VAL484  VAL487 

> <Gold.Protein.RotatedAtoms>
   37.2116   33.0221   41.3380 H   0  0  0  0  0  0  0  0  0  0  0  0  # atno 496  bound_to 491 

> <Gold.Score>
     Score     S(PLP)   S(hbond)     S(cho)   S(metal)  DE(clash)   DE(tors)     intcor
     40.86     -35.64       1.76       0.00       0.00       0.00       0.03       0.00

> <Gold.PLP.Fitness>
40.8587

> <Gold.PLP.PLP>
-35.6431

> <Gold.PLP.part.hbond>
-2.0000

> <Gold.PLP.part.metal>
0.0000

> <Gold.PLP.part.buried>
-4.4993

> <Gold.PLP.part.nonpolar>
-30.9314

> <Gold.PLP.part.repulsive>
0.2742

> <Gold.PLP.ligand.clash>
0.0000

> <Gold.PLP.ligand.torsion>
0.0266

> <Gold.PLP.Chemscore.Hbond>
1.7558

> <Gold.PLP.Chemscore.CHOScore>
0.0000

> <Gold.PLP.Chemscore.Metal>
0.0000

> <Gold.Chemscore.Hbonds>
donor molecule, donor type, donor heavy atom, donor atom, acceptor molecule, acceptor atom, score
      L1  H    11    28       P1  3187  1.00
      L1  H    11    29       P1  3229  0.76

> <Gold.PLP.Chemscore.Internal.Correction>
0.0014

