#       Name:                EN300-33038650_i004
#       Creating user name   aseyller
#       Creation time:       Sat Apr 22 06:22:52 2023


#       File generated by GOLD software.
#

@<TRIPOS>MOLECULE
EN300-33038650_i004|amine_3|mol2|3696|dock12
    30    30     1
SMALL
USER_CHARGES


@<TRIPOS>ATOM
      1 C1          33.2597  35.8016  37.2930 C.3            1 <1>                0.0000
      2 O2          32.0734  36.6384  37.2667 O.3            1 <1>                0.0000
      3 C3          31.0823  36.3175  38.1132 C.2            1 <1>                0.0000
      4 O4          31.2207  35.3976  38.8845 O.2            1 <1>                0.0000
      5 C5          29.7971  37.1043  38.1016 C.3            1 <1>                0.0000
      6 C6          28.8045  36.4741  39.0807 C.3            1 <1>                0.0000
      7 C7          29.3339  36.6206  40.5086 C.3            1 <1>                0.0000
      8 C8          28.3414  35.9905  41.4878 C.3            1 <1>                0.0000
      9 C9          26.9898  36.6978  41.3698 C.3            1 <1>                0.0000
     10 C10         26.4604  36.5513  39.9418 C.3            1 <1>                0.0000
     11 N11         25.1628  37.2304  39.8286 N.4            1 <1>                1.0000
     12 C12         27.4529  37.1814  38.9627 C.3            1 <1>                0.0000
     13 H13         33.7034  35.8314  38.2882 H              1 <1>                0.0000
     14 H14         32.9860  34.7754  37.0478 H              1 <1>                0.0000
     15 H15         33.9804  36.1697  36.5628 H              1 <1>                0.0000
     16 H16         29.9983  38.1332  38.3999 H              1 <1>                0.0000
     17 H17         29.3734  37.0934  37.0973 H              1 <1>                0.0000
     18 H18         28.6831  35.4168  38.8449 H              1 <1>                0.0000
     19 H19         30.2968  36.1167  40.5927 H              1 <1>                0.0000
     20 H20         29.4553  37.6779  40.7444 H              1 <1>                0.0000
     21 H21         28.2199  34.9333  41.2520 H              1 <1>                0.0000
     22 H22         28.7185  36.0949  42.5051 H              1 <1>                0.0000
     23 H23         26.2827  36.2489  42.0674 H              1 <1>                0.0000
     24 H24         27.1112  37.7551  41.6056 H              1 <1>                0.0000
     25 H25         26.3390  35.4940  39.7061 H              1 <1>                0.0000
     26 H26         27.5744  38.2386  39.1985 H              1 <1>                0.0000
     27 H27         27.0758  37.0770  37.9454 H              1 <1>                0.0000
     28 H28         24.4237  36.5850  40.0639 H              1 <1>                0.0000
     29 H29         25.1376  38.0157  40.4616 H              1 <1>                0.0000
     30 H30         25.0354  37.5569  38.8824 H              1 <1>                0.0000
@<TRIPOS>BOND
    1    1    2 1     
    2    1   13 1     
    3    1   14 1     
    4    1   15 1     
    5    2    3 1     
    6    3    4 2     
    7    3    5 1     
    8    5    6 1     
    9    5   16 1     
   10    5   17 1     
   11    6    7 1     
   12    6   12 1     
   13    6   18 1     
   14    7    8 1     
   15    7   19 1     
   16    7   20 1     
   17    8    9 1     
   18    8   21 1     
   19    8   22 1     
   20    9   10 1     
   21    9   23 1     
   22    9   24 1     
   23   10   11 1     
   24   10   12 1     
   25   10   25 1     
   26   11   28 1     
   27   11   29 1     
   28   11   30 1     
   29   12   26 1     
   30   12   27 1     
@<TRIPOS>SUBSTRUCTURE
      1 ****           1
@<TRIPOS>SET
DONOR_HYDROGENS      STATIC     ATOMS    <user>   **** ""
3 28 29 30
ATOM$RED        STATIC     ATOMS    COLORGROUP SYSTEM
3 28 29 30
@<TRIPOS>COMMENT
> <Gold.Version>
2022.2.0

> <Gold.Id.Protein>
1qkm|1qkm_protein|mol2

> <Gold.Protein.RotatedTorsions>
[  496  491  490  487 ] final   89.90 input  -89.99 | X-H torsion

> <Gold.Protein.ActiveResidues>
 MET295  LEU298  THR299  LEU301  ALA302  GLU305  TRP335  MET336  LEU339  MET340 
 GLY342  LEU343  ARG346  PHE356  ILE373  ILE376  PHE377  LEU380  LYS471  GLY472 
 MET473  HIS475  LEU476  LEU477  ASN478  MET479  VAL484  VAL487 

> <Gold.Protein.RotatedAtoms>
   36.8193   33.0226   42.0255 H   0  0  0  0  0  0  0  0  0  0  0  0  # atno 496  bound_to 491 

> <Gold.Score>
     Score     S(PLP)   S(hbond)     S(cho)   S(metal)  DE(clash)   DE(tors)     intcor
     41.79     -38.90       0.99       0.00       0.00       0.00       0.04       0.00

> <Gold.PLP.Fitness>
41.7935

> <Gold.PLP.PLP>
-38.9007

> <Gold.PLP.part.hbond>
-1.0000

> <Gold.PLP.part.metal>
0.0000

> <Gold.PLP.part.buried>
-3.4288

> <Gold.PLP.part.nonpolar>
-35.1748

> <Gold.PLP.part.repulsive>
0.2324

> <Gold.PLP.ligand.clash>
0.0000

> <Gold.PLP.ligand.torsion>
0.0423

> <Gold.PLP.Chemscore.Hbond>
0.9920

> <Gold.PLP.Chemscore.CHOScore>
0.0000

> <Gold.PLP.Chemscore.Metal>
0.0000

> <Gold.Chemscore.Hbonds>
donor molecule, donor type, donor heavy atom, donor atom, acceptor molecule, acceptor atom, score
      L1  H    11    28       P1  1131  0.99

> <Gold.PLP.Chemscore.Internal.Correction>
0.0014

