#       Name:                EN300-33038650_i004
#       Creating user name   aseyller
#       Creation time:       Sat Apr 22 06:22:50 2023


#       File generated by GOLD software.
#

@<TRIPOS>MOLECULE
EN300-33038650_i004|amine_3|mol2|3696|dock8
    30    30     1
SMALL
USER_CHARGES


@<TRIPOS>ATOM
      1 C1          30.7301  37.2884  36.4824 C.3            1 <1>                0.0000
      2 O2          29.9550  36.9278  37.6561 O.3            1 <1>                0.0000
      3 C3          30.4588  35.9682  38.4479 C.2            1 <1>                0.0000
      4 O4          31.5040  35.4344  38.1600 O.2            1 <1>                0.0000
      5 C5          29.7211  35.5566  39.6959 C.3            1 <1>                0.0000
      6 C6          28.4535  36.4009  39.8409 C.3            1 <1>                0.0000
      7 C7          27.4075  35.9285  38.8291 C.3            1 <1>                0.0000
      8 C8          26.1398  36.7727  38.9741 C.3            1 <1>                0.0000
      9 C9          25.5842  36.6193  40.3914 C.3            1 <1>                0.0000
     10 C10         26.6302  37.0917  41.4032 C.3            1 <1>                0.0000
     11 N11         26.0968  36.9444  42.7639 N.4            1 <1>                1.0000
     12 C12         27.8979  36.2474  41.2582 C.3            1 <1>                0.0000
     13 H13         31.7111  37.6491  36.7916 H              1 <1>                0.0000
     14 H14         30.8494  36.4138  35.8430 H              1 <1>                0.0000
     15 H15         30.2116  38.0733  35.9316 H              1 <1>                0.0000
     16 H16         29.4502  34.5030  39.6269 H              1 <1>                0.0000
     17 H17         30.3618  35.7109  40.5642 H              1 <1>                0.0000
     18 H18         28.6914  37.4483  39.6553 H              1 <1>                0.0000
     19 H19         27.8034  36.0378  37.8195 H              1 <1>                0.0000
     20 H20         27.1697  34.8810  39.0147 H              1 <1>                0.0000
     21 H21         26.3777  37.8201  38.7887 H              1 <1>                0.0000
     22 H22         25.3947  36.4361  38.2533 H              1 <1>                0.0000
     23 H23         24.6811  37.2207  40.4947 H              1 <1>                0.0000
     24 H24         25.3464  35.5718  40.5770 H              1 <1>                0.0000
     25 H25         26.8680  38.1391  41.2176 H              1 <1>                0.0000
     26 H26         27.6600  35.2000  41.4437 H              1 <1>                0.0000
     27 H27         28.6431  36.5840  41.9790 H              1 <1>                0.0000
     28 H28         26.6422  37.5048  43.4015 H              1 <1>                0.0000
     29 H29         25.1359  37.2516  42.7837 H              1 <1>                0.0000
     30 H30         26.1458  35.9756  43.0414 H              1 <1>                0.0000
@<TRIPOS>BOND
    1    1    2 1     
    2    1   13 1     
    3    1   14 1     
    4    1   15 1     
    5    2    3 1     
    6    3    4 2     
    7    3    5 1     
    8    5    6 1     
    9    5   16 1     
   10    5   17 1     
   11    6    7 1     
   12    6   12 1     
   13    6   18 1     
   14    7    8 1     
   15    7   19 1     
   16    7   20 1     
   17    8    9 1     
   18    8   21 1     
   19    8   22 1     
   20    9   10 1     
   21    9   23 1     
   22    9   24 1     
   23   10   11 1     
   24   10   12 1     
   25   10   25 1     
   26   11   28 1     
   27   11   29 1     
   28   11   30 1     
   29   12   26 1     
   30   12   27 1     
@<TRIPOS>SUBSTRUCTURE
      1 ****           1
@<TRIPOS>SET
DONOR_HYDROGENS      STATIC     ATOMS    <user>   **** ""
3 28 29 30
ATOM$RED        STATIC     ATOMS    COLORGROUP SYSTEM
3 28 29 30
@<TRIPOS>COMMENT
> <Gold.Version>
2022.2.0

> <Gold.Id.Protein>
1qkm|1qkm_protein|mol2

> <Gold.Protein.RotatedTorsions>
[  496  491  490  487 ] final  117.06 input  -89.99 | X-H torsion

> <Gold.Protein.ActiveResidues>
 MET295  LEU298  THR299  LEU301  ALA302  GLU305  TRP335  MET336  LEU339  MET340 
 GLY342  LEU343  ARG346  PHE356  ILE373  ILE376  PHE377  LEU380  LYS471  GLY472 
 MET473  HIS475  LEU476  LEU477  ASN478  MET479  VAL484  VAL487 

> <Gold.Protein.RotatedAtoms>
   37.0575   32.9402   41.6612 H   0  0  0  0  0  0  0  0  0  0  0  0  # atno 496  bound_to 491 

> <Gold.Score>
     Score     S(PLP)   S(hbond)     S(cho)   S(metal)  DE(clash)   DE(tors)     intcor
     43.24     -37.45       2.00       0.00       0.00       0.00       0.10       0.00

> <Gold.PLP.Fitness>
43.2424

> <Gold.PLP.PLP>
-37.4482

> <Gold.PLP.part.hbond>
-1.0000

> <Gold.PLP.part.metal>
0.0000

> <Gold.PLP.part.buried>
-2.8462

> <Gold.PLP.part.nonpolar>
-35.2219

> <Gold.PLP.part.repulsive>
1.1944

> <Gold.PLP.ligand.clash>
0.0000

> <Gold.PLP.ligand.torsion>
0.1038

> <Gold.PLP.Chemscore.Hbond>
2.0000

> <Gold.PLP.Chemscore.CHOScore>
0.0000

> <Gold.PLP.Chemscore.Metal>
0.0000

> <Gold.Chemscore.Hbonds>
donor molecule, donor type, donor heavy atom, donor atom, acceptor molecule, acceptor atom, score
      L1  H    11    30       P1   582  2.00

> <Gold.PLP.Chemscore.Internal.Correction>
0.0017

