#       Name:                EN300-33038650_i004
#       Creating user name   aseyller
#       Creation time:       Sat Apr 22 06:22:51 2023


#       File generated by GOLD software.
#

@<TRIPOS>MOLECULE
EN300-33038650_i004|amine_3|mol2|3696|dock10
    30    30     1
SMALL
USER_CHARGES


@<TRIPOS>ATOM
      1 C1          32.2178  35.7903  38.3411 C.3            1 <1>                0.0000
      2 O2          30.7786  35.9478  38.4508 O.3            1 <1>                0.0000
      3 C3          30.2238  36.9671  37.7763 C.2            1 <1>                0.0000
      4 O4          30.9187  37.8596  37.3513 O.2            1 <1>                0.0000
      5 C5          28.7344  36.9983  37.5489 C.3            1 <1>                0.0000
      6 C6          28.0201  37.2389  38.8803 C.3            1 <1>                0.0000
      7 C7          26.5111  37.3216  38.6419 C.3            1 <1>                0.0000
      8 C8          25.7967  37.5622  39.9732 C.3            1 <1>                0.0000
      9 C9          26.0994  36.4075  40.9303 C.3            1 <1>                0.0000
     10 C10         27.6084  36.3249  41.1688 C.3            1 <1>                0.0000
     11 N11         27.8990  35.2162  42.0877 N.4            1 <1>                1.0000
     12 C12         28.3228  36.0843  39.8374 C.3            1 <1>                0.0000
     13 H13         32.4874  35.6316  37.2969 H              1 <1>                0.0000
     14 H14         32.7110  36.6892  38.7110 H              1 <1>                0.0000
     15 H15         32.5357  34.9318  38.9328 H              1 <1>                0.0000
     16 H16         28.4897  37.8022  36.8546 H              1 <1>                0.0000
     17 H17         28.4108  36.0454  37.1300 H              1 <1>                0.0000
     18 H18         28.3707  38.1742  39.3169 H              1 <1>                0.0000
     19 H19         26.2955  38.1442  37.9600 H              1 <1>                0.0000
     20 H20         26.1605  36.3864  38.2053 H              1 <1>                0.0000
     21 H21         26.1473  38.4973  40.4099 H              1 <1>                0.0000
     22 H22         24.7217  37.6210  39.8034 H              1 <1>                0.0000
     23 H23         25.5905  36.5789  41.8789 H              1 <1>                0.0000
     24 H24         25.7488  35.4723  40.4938 H              1 <1>                0.0000
     25 H25         27.9589  37.2600  41.6055 H              1 <1>                0.0000
     26 H26         27.9721  35.1491  39.4008 H              1 <1>                0.0000
     27 H27         29.3978  36.0254  40.0073 H              1 <1>                0.0000
     28 H28         27.0478  34.9277  42.5465 H              1 <1>                0.0000
     29 H29         28.2808  34.4400  41.5683 H              1 <1>                0.0000
     30 H30         28.5678  35.5194  42.7796 H              1 <1>                0.0000
@<TRIPOS>BOND
    1    1    2 1     
    2    1   13 1     
    3    1   14 1     
    4    1   15 1     
    5    2    3 1     
    6    3    4 2     
    7    3    5 1     
    8    5    6 1     
    9    5   16 1     
   10    5   17 1     
   11    6    7 1     
   12    6   12 1     
   13    6   18 1     
   14    7    8 1     
   15    7   19 1     
   16    7   20 1     
   17    8    9 1     
   18    8   21 1     
   19    8   22 1     
   20    9   10 1     
   21    9   23 1     
   22    9   24 1     
   23   10   11 1     
   24   10   12 1     
   25   10   25 1     
   26   11   28 1     
   27   11   29 1     
   28   11   30 1     
   29   12   26 1     
   30   12   27 1     
@<TRIPOS>SUBSTRUCTURE
      1 ****           1
@<TRIPOS>SET
DONOR_HYDROGENS      STATIC     ATOMS    <user>   **** ""
3 28 29 30
ATOM$RED        STATIC     ATOMS    COLORGROUP SYSTEM
3 28 29 30
@<TRIPOS>COMMENT
> <Gold.Version>
2022.2.0

> <Gold.Id.Protein>
1qkm|1qkm_protein|mol2

> <Gold.Protein.RotatedTorsions>
[  496  491  490  487 ] final    2.83 input  -89.99 | X-H torsion

> <Gold.Protein.ActiveResidues>
 MET295  LEU298  THR299  LEU301  ALA302  GLU305  TRP335  MET336  LEU339  MET340 
 GLY342  LEU343  ARG346  PHE356  ILE373  ILE376  PHE377  LEU380  LYS471  GLY472 
 MET473  HIS475  LEU476  LEU477  ASN478  MET479  VAL484  VAL487 

> <Gold.Protein.RotatedAtoms>
   36.2619   34.1729   42.2585 H   0  0  0  0  0  0  0  0  0  0  0  0  # atno 496  bound_to 491 

> <Gold.Score>
     Score     S(PLP)   S(hbond)     S(cho)   S(metal)  DE(clash)   DE(tors)     intcor
     44.17     -38.73       2.00       0.00       0.00       0.00       0.28       0.00

> <Gold.PLP.Fitness>
44.1708

> <Gold.PLP.PLP>
-38.7258

> <Gold.PLP.part.hbond>
-1.0000

> <Gold.PLP.part.metal>
0.0000

> <Gold.PLP.part.buried>
-4.7180

> <Gold.PLP.part.nonpolar>
-33.3323

> <Gold.PLP.part.repulsive>
0.1469

> <Gold.PLP.ligand.clash>
0.0000

> <Gold.PLP.ligand.torsion>
0.2782

> <Gold.PLP.Chemscore.Hbond>
2.0000

> <Gold.PLP.Chemscore.CHOScore>
0.0000

> <Gold.PLP.Chemscore.Metal>
0.0000

> <Gold.Chemscore.Hbonds>
donor molecule, donor type, donor heavy atom, donor atom, acceptor molecule, acceptor atom, score
      L1  H    11    28       P1   582  2.00

> <Gold.PLP.Chemscore.Internal.Correction>
0.0014

