#       Name:                EN300-33038650_i004
#       Creating user name   aseyller
#       Creation time:       Sat Apr 22 06:22:48 2023


#       File generated by GOLD software.
#

@<TRIPOS>MOLECULE
EN300-33038650_i004|amine_3|mol2|3696|dock5
    30    30     1
SMALL
USER_CHARGES


@<TRIPOS>ATOM
      1 C1          30.9220  37.9366  35.2101 C.3            1 <1>                0.0000
      2 O2          29.7268  38.2989  35.9507 O.3            1 <1>                0.0000
      3 C3          29.4110  37.5363  37.0091 C.2            1 <1>                0.0000
      4 O4          30.1264  36.6151  37.3249 O.2            1 <1>                0.0000
      5 C5          28.1644  37.8289  37.8037 C.3            1 <1>                0.0000
      6 C6          28.0083  36.7845  38.9107 C.3            1 <1>                0.0000
      7 C7          29.1463  36.9388  39.9217 C.3            1 <1>                0.0000
      8 C8          28.9902  35.8943  41.0287 C.3            1 <1>                0.0000
      9 C9          27.6487  36.0974  41.7360 C.3            1 <1>                0.0000
     10 C10         26.5107  35.9430  40.7250 C.3            1 <1>                0.0000
     11 N11         25.2228  36.1379  41.4040 N.4            1 <1>                1.0000
     12 C12         26.6668  36.9875  39.6179 C.3            1 <1>                0.0000
     13 H13         31.7870  37.9815  35.8718 H              1 <1>                0.0000
     14 H14         30.8149  36.9243  34.8202 H              1 <1>                0.0000
     15 H15         31.0614  38.6319  34.3824 H              1 <1>                0.0000
     16 H16         28.2415  38.8211  38.2484 H              1 <1>                0.0000
     17 H17         27.2967  37.7926  37.1449 H              1 <1>                0.0000
     18 H18         28.0420  35.7857  38.4753 H              1 <1>                0.0000
     19 H19         30.1019  36.7942  39.4178 H              1 <1>                0.0000
     20 H20         29.1125  37.9375  40.3570 H              1 <1>                0.0000
     21 H21         29.0238  34.8956  40.5934 H              1 <1>                0.0000
     22 H22         29.8010  36.0043  41.7490 H              1 <1>                0.0000
     23 H23         27.5375  35.3533  42.5247 H              1 <1>                0.0000
     24 H24         27.6150  37.0961  42.1713 H              1 <1>                0.0000
     25 H25         26.5444  34.9443  40.2897 H              1 <1>                0.0000
     26 H26         26.6331  37.9862  40.0533 H              1 <1>                0.0000
     27 H27         25.8560  36.8775  38.8977 H              1 <1>                0.0000
     28 H28         24.4722  35.8720  40.7843 H              1 <1>                0.0000
     29 H29         25.1908  35.5668  42.2353 H              1 <1>                0.0000
     30 H30         25.1204  37.1088  41.6589 H              1 <1>                0.0000
@<TRIPOS>BOND
    1    1    2 1     
    2    1   13 1     
    3    1   14 1     
    4    1   15 1     
    5    2    3 1     
    6    3    4 2     
    7    3    5 1     
    8    5    6 1     
    9    5   16 1     
   10    5   17 1     
   11    6    7 1     
   12    6   12 1     
   13    6   18 1     
   14    7    8 1     
   15    7   19 1     
   16    7   20 1     
   17    8    9 1     
   18    8   21 1     
   19    8   22 1     
   20    9   10 1     
   21    9   23 1     
   22    9   24 1     
   23   10   11 1     
   24   10   12 1     
   25   10   25 1     
   26   11   28 1     
   27   11   29 1     
   28   11   30 1     
   29   12   26 1     
   30   12   27 1     
@<TRIPOS>SUBSTRUCTURE
      1 ****           1
@<TRIPOS>SET
DONOR_HYDROGENS      STATIC     ATOMS    <user>   **** ""
3 28 29 30
ATOM$RED        STATIC     ATOMS    COLORGROUP SYSTEM
3 28 29 30
@<TRIPOS>COMMENT
> <Gold.Version>
2022.2.0

> <Gold.Id.Protein>
1qkm|1qkm_protein|mol2

> <Gold.Protein.RotatedTorsions>
[  496  491  490  487 ] final -141.05 input  -89.99 | X-H torsion

> <Gold.Protein.ActiveResidues>
 MET295  LEU298  THR299  LEU301  ALA302  GLU305  TRP335  MET336  LEU339  MET340 
 GLY342  LEU343  ARG346  PHE356  ILE373  ILE376  PHE377  LEU380  LYS471  GLY472 
 MET473  HIS475  LEU476  LEU477  ASN478  MET479  VAL484  VAL487 

> <Gold.Protein.RotatedAtoms>
   37.1804   34.0581   40.7225 H   0  0  0  0  0  0  0  0  0  0  0  0  # atno 496  bound_to 491 

> <Gold.Score>
     Score     S(PLP)   S(hbond)     S(cho)   S(metal)  DE(clash)   DE(tors)     intcor
     44.37     -36.67       2.58       0.00       0.00       0.00       0.03       0.00

> <Gold.PLP.Fitness>
44.3660

> <Gold.PLP.PLP>
-36.6665

> <Gold.PLP.part.hbond>
-1.6221

> <Gold.PLP.part.metal>
0.0000

> <Gold.PLP.part.buried>
-0.8455

> <Gold.PLP.part.nonpolar>
-34.7937

> <Gold.PLP.part.repulsive>
0.1254

> <Gold.PLP.ligand.clash>
0.0000

> <Gold.PLP.ligand.torsion>
0.0286

> <Gold.PLP.Chemscore.Hbond>
2.5850

> <Gold.PLP.Chemscore.CHOScore>
0.0000

> <Gold.PLP.Chemscore.Metal>
0.0000

> <Gold.Chemscore.Hbonds>
donor molecule, donor type, donor heavy atom, donor atom, acceptor molecule, acceptor atom, score
      L1  H    11    28       P1  1131  0.58
      L1  H    11    29       P1   582  2.00

> <Gold.PLP.Chemscore.Internal.Correction>
0.0017

