#       Name:                EN300-33038650_i004
#       Creating user name   aseyller
#       Creation time:       Sat Apr 22 06:22:55 2023


#       File generated by GOLD software.
#

@<TRIPOS>MOLECULE
EN300-33038650_i004|amine_3|mol2|3696|dock20
    30    30     1
SMALL
USER_CHARGES


@<TRIPOS>ATOM
      1 C1          30.7092  38.8628  36.4930 C.3            1 <1>                0.0000
      2 O2          29.9925  38.1963  37.5654 O.3            1 <1>                0.0000
      3 C3          30.6040  37.1555  38.1523 C.2            1 <1>                0.0000
      4 O4          31.7014  36.8119  37.7812 O.2            1 <1>                0.0000
      5 C5          29.9220  36.4154  39.2740 C.3            1 <1>                0.0000
      6 C6          28.5549  37.0468  39.5446 C.3            1 <1>                0.0000
      7 C7          27.6407  36.8197  38.3390 C.3            1 <1>                0.0000
      8 C8          26.2735  37.4511  38.6095 C.3            1 <1>                0.0000
      9 C9          25.6510  36.8074  39.8501 C.3            1 <1>                0.0000
     10 C10         26.5653  37.0344  41.0557 C.3            1 <1>                0.0000
     11 N11         25.9676  36.4164  42.2468 N.4            1 <1>                1.0000
     12 C12         27.9324  36.4031  40.7852 C.3            1 <1>                0.0000
     13 H13         31.6522  39.2544  36.8746 H              1 <1>                0.0000
     14 H14         30.9090  38.1510  35.6921 H              1 <1>                0.0000
     15 H15         30.1047  39.6837  36.1071 H              1 <1>                0.0000
     16 H16         29.7905  35.3705  38.9928 H              1 <1>                0.0000
     17 H17         30.5344  36.4752  40.1738 H              1 <1>                0.0000
     18 H18         28.6758  38.1170  39.7124 H              1 <1>                0.0000
     19 H19         28.0842  37.2783  37.4552 H              1 <1>                0.0000
     20 H20         27.5198  35.7495  38.1711 H              1 <1>                0.0000
     21 H21         26.3944  38.5213  38.7775 H              1 <1>                0.0000
     22 H22         25.6222  37.2894  37.7506 H              1 <1>                0.0000
     23 H23         24.6770  37.2572  40.0428 H              1 <1>                0.0000
     24 H24         25.5301  35.7372  39.6822 H              1 <1>                0.0000
     25 H25         26.6861  38.1046  41.2236 H              1 <1>                0.0000
     26 H26         27.8115  35.3329  40.6172 H              1 <1>                0.0000
     27 H27         28.5837  36.5648  41.6440 H              1 <1>                0.0000
     28 H28         25.0217  36.1325  42.0397 H              1 <1>                0.0000
     29 H29         26.5099  35.6089  42.5149 H              1 <1>                0.0000
     30 H30         25.9604  37.0832  43.0040 H              1 <1>                0.0000
@<TRIPOS>BOND
    1    1    2 1     
    2    1   13 1     
    3    1   14 1     
    4    1   15 1     
    5    2    3 1     
    6    3    4 2     
    7    3    5 1     
    8    5    6 1     
    9    5   16 1     
   10    5   17 1     
   11    6    7 1     
   12    6   12 1     
   13    6   18 1     
   14    7    8 1     
   15    7   19 1     
   16    7   20 1     
   17    8    9 1     
   18    8   21 1     
   19    8   22 1     
   20    9   10 1     
   21    9   23 1     
   22    9   24 1     
   23   10   11 1     
   24   10   12 1     
   25   10   25 1     
   26   11   28 1     
   27   11   29 1     
   28   11   30 1     
   29   12   26 1     
   30   12   27 1     
@<TRIPOS>SUBSTRUCTURE
      1 ****           1
@<TRIPOS>SET
DONOR_HYDROGENS      STATIC     ATOMS    <user>   **** ""
3 28 29 30
ATOM$RED        STATIC     ATOMS    COLORGROUP SYSTEM
3 28 29 30
@<TRIPOS>COMMENT
> <Gold.Version>
2022.2.0

> <Gold.Id.Protein>
1qkm|1qkm_protein|mol2

> <Gold.Protein.RotatedTorsions>
[  496  491  490  487 ] final  107.45 input  -89.99 | X-H torsion

> <Gold.Protein.ActiveResidues>
 MET295  LEU298  THR299  LEU301  ALA302  GLU305  TRP335  MET336  LEU339  MET340 
 GLY342  LEU343  ARG346  PHE356  ILE373  ILE376  PHE377  LEU380  LYS471  GLY472 
 MET473  HIS475  LEU476  LEU477  ASN478  MET479  VAL484  VAL487 

> <Gold.Protein.RotatedAtoms>
   36.9775   32.9467   41.7973 H   0  0  0  0  0  0  0  0  0  0  0  0  # atno 496  bound_to 491 

> <Gold.Score>
     Score     S(PLP)   S(hbond)     S(cho)   S(metal)  DE(clash)   DE(tors)     intcor
     40.56     -37.73       0.96       0.00       0.00       0.00       0.02       0.00

> <Gold.PLP.Fitness>
40.5638

> <Gold.PLP.PLP>
-37.7268

> <Gold.PLP.part.hbond>
-0.6068

> <Gold.PLP.part.metal>
0.0000

> <Gold.PLP.part.buried>
-3.9051

> <Gold.PLP.part.nonpolar>
-33.7674

> <Gold.PLP.part.repulsive>
0.1125

> <Gold.PLP.ligand.clash>
0.0000

> <Gold.PLP.ligand.torsion>
0.0222

> <Gold.PLP.Chemscore.Hbond>
0.9600

> <Gold.PLP.Chemscore.CHOScore>
0.0000

> <Gold.PLP.Chemscore.Metal>
0.0000

> <Gold.Chemscore.Hbonds>
donor molecule, donor type, donor heavy atom, donor atom, acceptor molecule, acceptor atom, score
      L1  H    11    29       P1   582  0.96

> <Gold.PLP.Chemscore.Internal.Correction>
0.0014

