#       Name:                EN300-33038650_i004
#       Creating user name   aseyller
#       Creation time:       Sat Apr 22 06:22:55 2023


#       File generated by GOLD software.
#

@<TRIPOS>MOLECULE
EN300-33038650_i004|amine_3|mol2|3696|dock19
    30    30     1
SMALL
USER_CHARGES


@<TRIPOS>ATOM
      1 C1          31.7927  34.0182  38.2989 C.3            1 <1>                0.0000
      2 O2          31.4946  35.3511  38.7915 O.3            1 <1>                0.0000
      3 C3          31.0985  36.2606  37.8873 C.2            1 <1>                0.0000
      4 O4          31.1377  35.9974  36.7086 O.2            1 <1>                0.0000
      5 C5          30.6049  37.6099  38.3419 C.3            1 <1>                0.0000
      6 C6          29.2383  37.4539  39.0118 C.3            1 <1>                0.0000
      7 C7          28.2097  37.0026  37.9730 C.3            1 <1>                0.0000
      8 C8          26.8430  36.8465  38.6428 C.3            1 <1>                0.0000
      9 C9          26.9369  35.8005  39.7554 C.3            1 <1>                0.0000
     10 C10         27.9655  36.2517  40.7942 C.3            1 <1>                0.0000
     11 N11         28.0556  35.2474  41.8625 N.4            1 <1>                1.0000
     12 C12         29.3322  36.4078  40.1245 C.3            1 <1>                0.0000
     13 H13         30.9035  33.5968  37.8300 H              1 <1>                0.0000
     14 H14         32.5982  34.0731  37.5666 H              1 <1>                0.0000
     15 H15         32.1001  33.3838  39.1303 H              1 <1>                0.0000
     16 H16         31.3125  38.0345  39.0541 H              1 <1>                0.0000
     17 H17         30.5141  38.2725  37.4812 H              1 <1>                0.0000
     18 H18         28.9306  38.4094  39.4365 H              1 <1>                0.0000
     19 H19         28.1428  37.7478  37.1804 H              1 <1>                0.0000
     20 H20         28.5174  36.0471  37.5483 H              1 <1>                0.0000
     21 H21         26.5353  37.8020  39.0676 H              1 <1>                0.0000
     22 H22         26.1102  36.5251  37.9027 H              1 <1>                0.0000
     23 H23         25.9632  35.6893  40.2326 H              1 <1>                0.0000
     24 H24         27.2446  34.8449  39.3307 H              1 <1>                0.0000
     25 H25         27.6577  37.2072  41.2190 H              1 <1>                0.0000
     26 H26         29.6398  35.4523  39.6997 H              1 <1>                0.0000
     27 H27         30.0650  36.7293  40.8645 H              1 <1>                0.0000
     28 H28         28.1205  34.3269  41.4542 H              1 <1>                0.0000
     29 H29         28.8755  35.4252  42.4231 H              1 <1>                0.0000
     30 H30         27.2327  35.3000  42.4440 H              1 <1>                0.0000
@<TRIPOS>BOND
    1    1    2 1     
    2    1   13 1     
    3    1   14 1     
    4    1   15 1     
    5    2    3 1     
    6    3    4 2     
    7    3    5 1     
    8    5    6 1     
    9    5   16 1     
   10    5   17 1     
   11    6    7 1     
   12    6   12 1     
   13    6   18 1     
   14    7    8 1     
   15    7   19 1     
   16    7   20 1     
   17    8    9 1     
   18    8   21 1     
   19    8   22 1     
   20    9   10 1     
   21    9   23 1     
   22    9   24 1     
   23   10   11 1     
   24   10   12 1     
   25   10   25 1     
   26   11   28 1     
   27   11   29 1     
   28   11   30 1     
   29   12   26 1     
   30   12   27 1     
@<TRIPOS>SUBSTRUCTURE
      1 ****           1
@<TRIPOS>SET
DONOR_HYDROGENS      STATIC     ATOMS    <user>   **** ""
3 28 29 30
ATOM$RED        STATIC     ATOMS    COLORGROUP SYSTEM
3 28 29 30
@<TRIPOS>COMMENT
> <Gold.Version>
2022.2.0

> <Gold.Id.Protein>
1qkm|1qkm_protein|mol2

> <Gold.Protein.RotatedTorsions>
[  496  491  490  487 ] final -126.01 input  -89.99 | X-H torsion

> <Gold.Protein.ActiveResidues>
 MET295  LEU298  THR299  LEU301  ALA302  GLU305  TRP335  MET336  LEU339  MET340 
 GLY342  LEU343  ARG346  PHE356  ILE373  ILE376  PHE377  LEU380  LYS471  GLY472 
 MET473  HIS475  LEU476  LEU477  ASN478  MET479  VAL484  VAL487 

> <Gold.Protein.RotatedAtoms>
   37.0744   34.2764   40.7672 H   0  0  0  0  0  0  0  0  0  0  0  0  # atno 496  bound_to 491 

> <Gold.Score>
     Score     S(PLP)   S(hbond)     S(cho)   S(metal)  DE(clash)   DE(tors)     intcor
     42.83     -37.19       2.00       0.00       0.00       0.00       0.18       0.00

> <Gold.PLP.Fitness>
42.8256

> <Gold.PLP.PLP>
-37.1930

> <Gold.PLP.part.hbond>
-1.0000

> <Gold.PLP.part.metal>
0.0000

> <Gold.PLP.part.buried>
-4.1915

> <Gold.PLP.part.nonpolar>
-32.6433

> <Gold.PLP.part.repulsive>
0.1818

> <Gold.PLP.ligand.clash>
0.0000

> <Gold.PLP.ligand.torsion>
0.1844

> <Gold.PLP.Chemscore.Hbond>
2.0000

> <Gold.PLP.Chemscore.CHOScore>
0.0000

> <Gold.PLP.Chemscore.Metal>
0.0000

> <Gold.Chemscore.Hbonds>
donor molecule, donor type, donor heavy atom, donor atom, acceptor molecule, acceptor atom, score
      L1  H    11    30       P1   582  2.00

> <Gold.PLP.Chemscore.Internal.Correction>
0.0014

