#       Name:                EN300-109827_i001
#       Creating user name   fsindt
#       Creation time:       Tue Feb 28 15:21:49 2023


#       File generated by GOLD software.
#

@<TRIPOS>MOLECULE
EN300-109827_i001|amine_7|mol2|6382|dock18
    21    22     1
SMALL
USER_CHARGES


@<TRIPOS>ATOM
      1 O1          -0.8340 -12.7119  10.3638 O.2            1 <1>                0.0000
      2 C2          -0.1609 -13.0024   9.3947 C.2            1 <1>                0.0000
      3 O3           0.2008 -12.1148   8.4568 O.3            1 <1>                0.0000
      4 C4           1.1001 -12.7555   7.5028 C.3            1 <1>                0.0000
      5 C5           1.2798 -14.1755   8.0607 C.3            1 <1>                0.0000
      6 C6           0.8596 -15.2258   7.0283 C.3            1 <1>                0.0000
      7 N7           0.7136 -16.5217   7.7074 N.4            1 <1>                1.0000
      8 C8          -0.4000 -16.4943   8.6614 C.3            1 <1>                0.0000
      9 C9          -0.0948 -15.5017   9.7945 C.3            1 <1>                0.0000
     10 N10          0.2943 -14.2322   9.1628 N.am           1 <1>                0.0000
     11 H11          0.6463 -12.7884   6.5123 H              1 <1>                0.0000
     12 H12          2.0566 -12.2339   7.4692 H              1 <1>                0.0000
     13 H13          2.2991 -14.3431   8.4085 H              1 <1>                0.0000
     14 H14         -0.0917 -14.9383   6.5805 H              1 <1>                0.0000
     15 H15          1.6225 -15.3029   6.2536 H              1 <1>                0.0000
     16 H16         -1.3103 -16.1871   8.1466 H              1 <1>                0.0000
     17 H17         -0.5417 -17.4902   9.0811 H              1 <1>                0.0000
     18 H18         -0.9821 -15.3557  10.4105 H              1 <1>                0.0000
     19 H19          0.7264 -15.8758  10.4058 H              1 <1>                0.0000
     20 H20          0.5421 -17.2390   7.0189 H              1 <1>                0.0000
     21 H21          1.5673 -16.7349   8.2011 H              1 <1>                0.0000
@<TRIPOS>BOND
    1    1    2 2     
    2    2    3 1     
    3    2   10 am    
    4    3    4 1     
    5    4    5 1     
    6    4   11 1     
    7    4   12 1     
    8    5    6 1     
    9    5   10 1     
   10    5   13 1     
   11    6    7 1     
   12    6   14 1     
   13    6   15 1     
   14    7    8 1     
   15    7   20 1     
   16    7   21 1     
   17    8    9 1     
   18    8   16 1     
   19    8   17 1     
   20    9   10 1     
   21    9   18 1     
   22    9   19 1     
@<TRIPOS>SUBSTRUCTURE
      1 ****           1
@<TRIPOS>SET
DONOR_HYDROGENS      STATIC     ATOMS    <user>   **** ""
2 20 21
ATOM$RED        STATIC     ATOMS    COLORGROUP SYSTEM
2 20 21
@<TRIPOS>COMMENT
> <Gold.Version>
2022.2.0

> <Gold.Id.Protein>
3pbl|protein|mol2

> <Gold.Protein.RotatedTorsions>
[ 1303 1298 1297 1294 ] final  -18.24 input  179.99 | X-H torsion
[ 2461 2456 2455 2452 ] final   13.67 input   30.03 | X-H torsion
[ 2515 2510 2509 2506 ] final  111.77 input  -89.99 | X-H torsion
[ 3721 3712 3711 3710 ] final  -37.22 input -179.91 | X-H torsion
[ 3841 3832 3831 3830 ] final    5.90 input -179.91 | X-H torsion
[ 3767 3762 3761 3758 ] final -143.69 input  -89.99 | X-H torsion
[ 2472 2467 2466 2463 ] final  -47.20 input  -89.97 | X-H torsion

> <Gold.Protein.ActiveResidues>
 VAL82   VAL86   LEU89   PHE106  VAL107  ASP110  VAL111  MET112  CYS114  THR115 
 CYS181  SER182  ILE183  PHE188  VAL189  ILE190  SER192  SER193  SER196  TRP342 
 PHE345  PHE346  HIS349  VAL350  TYR365  THR369  GLY372  TYR373 

> <Gold.Protein.RotatedAtoms>
    3.3310   -9.6136    3.9086 H   0  0  0  0  0  0  0  0  0  0  0  0  # atno 1303 bound_to 1298
    1.2577   -7.9335    7.0517 H   0  0  0  0  0  0  0  0  0  0  0  0  # atno 2461 bound_to 2456
   -3.6580   -5.1138    8.7758 H   0  0  0  0  0  0  0  0  0  0  0  0  # atno 2472 bound_to 2467
    2.0312   -8.0378    6.0252 H   0  0  0  0  0  0  0  0  0  0  0  0  # atno 2515 bound_to 2510
   -2.6448  -17.6178   14.6497 H   0  0  0  0  0  0  0  0  0  0  0  0  # atno 3721 bound_to 3712
   -4.5194  -22.1333   11.6389 H   0  0  0  0  0  0  0  0  0  0  0  0  # atno 3767 bound_to 3762
    1.7908  -20.5527    9.5841 H   0  0  0  0  0  0  0  0  0  0  0  0  # atno 3841 bound_to 3832
    4.4729   -8.5041    4.2709 LP  0  0  0  0  0  0  0  0  0  0  0  0  # atno 4297 bound_to 1298
    4.5586  -10.0035    4.9123 LP  0  0  0  0  0  0  0  0  0  0  0  0  # atno 4298 bound_to 1298
    0.4474   -9.0681    7.9022 LP  0  0  0  0  0  0  0  0  0  0  0  0  # atno 4299 bound_to 2456
    2.0327   -8.8063    8.1940 LP  0  0  0  0  0  0  0  0  0  0  0  0  # atno 4300 bound_to 2456
    2.5953   -7.7219    4.5260 LP  0  0  0  0  0  0  0  0  0  0  0  0  # atno 4301 bound_to 2510
    2.6704   -9.2396    5.1237 LP  0  0  0  0  0  0  0  0  0  0  0  0  # atno 4302 bound_to 2510
   -3.5656  -16.5585   13.8699 LP  0  0  0  0  0  0  0  0  0  0  0  0  # atno 4306 bound_to 3712
   -2.9086  -17.8277   13.0799 LP  0  0  0  0  0  0  0  0  0  0  0  0  # atno 4307 bound_to 3712
    2.0567  -19.6402    8.2907 LP  0  0  0  0  0  0  0  0  0  0  0  0  # atno 4314 bound_to 3832
    3.1040  -20.8237    8.7019 LP  0  0  0  0  0  0  0  0  0  0  0  0  # atno 4315 bound_to 3832
   -4.1290  -23.3154   10.5820 LP  0  0  0  0  0  0  0  0  0  0  0  0  # atno 4318 bound_to 3762
   -5.4790  -22.4262   10.3505 LP  0  0  0  0  0  0  0  0  0  0  0  0  # atno 4319 bound_to 3762
   -5.2102   -5.4273    9.1742 LP  0  0  0  0  0  0  0  0  0  0  0  0  # atno 4320 bound_to 2467
   -4.8485   -4.8524    7.6892 LP  0  0  0  0  0  0  0  0  0  0  0  0  # atno 4321 bound_to 2467

> <Gold.Score>
     Score     S(PLP)   S(hbond)     S(cho)   S(metal)  DE(clash)   DE(tors)     intcor
     32.45     -26.45       2.00       0.00       0.00       0.00       0.00       0.00

> <Gold.PLP.Fitness>
32.4510

> <Gold.PLP.PLP>
-26.4510

> <Gold.PLP.part.hbond>
-1.0000

> <Gold.PLP.part.metal>
0.0000

> <Gold.PLP.part.buried>
-4.3365

> <Gold.PLP.part.nonpolar>
-21.4250

> <Gold.PLP.part.repulsive>
0.0080

> <Gold.PLP.ligand.clash>
0.0000

> <Gold.PLP.ligand.torsion>
0.0000

> <Gold.PLP.Chemscore.Hbond>
2.0000

> <Gold.PLP.Chemscore.CHOScore>
0.0000

> <Gold.PLP.Chemscore.Metal>
0.0000

> <Gold.Chemscore.Hbonds>
donor molecule, donor type, donor heavy atom, donor atom, acceptor molecule, acceptor atom, score
      L1  H     7    21       P1  1227  2.00

> <Gold.PLP.Chemscore.Internal.Correction>
0.0000

