#       Name:                EN300-109827_i001
#       Creating user name   fsindt
#       Creation time:       Tue Feb 28 15:21:47 2023


#       File generated by GOLD software.
#

@<TRIPOS>MOLECULE
EN300-109827_i001|amine_7|mol2|6382|dock9
    21    22     1
SMALL
USER_CHARGES


@<TRIPOS>ATOM
      1 O1          -1.1176 -16.2548  14.0017 O.2            1 <1>                0.0000
      2 C2           0.0848 -16.3261  13.8417 C.2            1 <1>                0.0000
      3 O3           0.9510 -16.5218  14.8466 O.3            1 <1>                0.0000
      4 C4           2.2964 -16.6798  14.3043 C.3            1 <1>                0.0000
      5 C5           2.0918 -16.6143  12.7832 C.3            1 <1>                0.0000
      6 C6           2.9271 -15.4880  12.1672 C.3            1 <1>                0.0000
      7 N7           2.4441 -15.2364  10.8014 N.4            1 <1>                1.0000
      8 C8           1.0789 -14.7008  10.8155 C.3            1 <1>                0.0000
      9 C9           0.1090 -15.7533  11.3755 C.3            1 <1>                0.0000
     10 N10          0.6712 -16.2229  12.6505 N.am           1 <1>                0.0000
     11 H11          2.9413 -15.8673  14.6388 H              1 <1>                0.0000
     12 H12          2.7141 -17.6444  14.5928 H              1 <1>                0.0000
     13 H13          2.3026 -17.5728  12.3090 H              1 <1>                0.0000
     14 H14          2.8193 -14.5834  12.7657 H              1 <1>                0.0000
     15 H15          3.9752 -15.7855  12.1354 H              1 <1>                0.0000
     16 H16          1.0463 -13.8091  11.4414 H              1 <1>                0.0000
     17 H17          0.7822 -14.4394   9.7997 H              1 <1>                0.0000
     18 H18         -0.8707 -15.3055  11.5418 H              1 <1>                0.0000
     19 H19          0.0243 -16.5886  10.6804 H              1 <1>                0.0000
     20 H20          3.0557 -14.5723  10.3510 H              1 <1>                0.0000
     21 H21          2.4553 -16.1012  10.2816 H              1 <1>                0.0000
@<TRIPOS>BOND
    1    1    2 2     
    2    2    3 1     
    3    2   10 am    
    4    3    4 1     
    5    4    5 1     
    6    4   11 1     
    7    4   12 1     
    8    5    6 1     
    9    5   10 1     
   10    5   13 1     
   11    6    7 1     
   12    6   14 1     
   13    6   15 1     
   14    7    8 1     
   15    7   20 1     
   16    7   21 1     
   17    8    9 1     
   18    8   16 1     
   19    8   17 1     
   20    9   10 1     
   21    9   18 1     
   22    9   19 1     
@<TRIPOS>SUBSTRUCTURE
      1 ****           1
@<TRIPOS>SET
DONOR_HYDROGENS      STATIC     ATOMS    <user>   **** ""
2 20 21
ATOM$RED        STATIC     ATOMS    COLORGROUP SYSTEM
2 20 21
@<TRIPOS>COMMENT
> <Gold.Version>
2022.2.0

> <Gold.Id.Protein>
3pbl|protein|mol2

> <Gold.Protein.RotatedTorsions>
[ 1303 1298 1297 1294 ] final  134.96 input  179.99 | X-H torsion
[ 2461 2456 2455 2452 ] final   78.01 input   30.03 | X-H torsion
[ 2515 2510 2509 2506 ] final -143.94 input  -89.99 | X-H torsion
[ 3721 3712 3711 3710 ] final -157.27 input -179.91 | X-H torsion
[ 3841 3832 3831 3830 ] final    8.41 input -179.91 | X-H torsion
[ 3767 3762 3761 3758 ] final   27.93 input  -89.99 | X-H torsion
[ 2472 2467 2466 2463 ] final -101.16 input  -89.97 | X-H torsion

> <Gold.Protein.ActiveResidues>
 VAL82   VAL86   LEU89   PHE106  VAL107  ASP110  VAL111  MET112  CYS114  THR115 
 CYS181  SER182  ILE183  PHE188  VAL189  ILE190  SER192  SER193  SER196  TRP342 
 PHE345  PHE346  HIS349  VAL350  TYR365  THR369  GLY372  TYR373 

> <Gold.Protein.RotatedAtoms>
    4.8476   -9.5496    4.9376 H   0  0  0  0  0  0  0  0  0  0  0  0  # atno 1303 bound_to 1298
    2.0762   -8.1766    7.5802 H   0  0  0  0  0  0  0  0  0  0  0  0  # atno 2461 bound_to 2456
   -4.2032   -5.3896    9.3746 H   0  0  0  0  0  0  0  0  0  0  0  0  # atno 2472 bound_to 2467
    2.5733   -9.2548    5.3621 H   0  0  0  0  0  0  0  0  0  0  0  0  # atno 2515 bound_to 2510
   -3.3359  -16.5313   13.8791 H   0  0  0  0  0  0  0  0  0  0  0  0  # atno 3721 bound_to 3712
   -5.0098  -23.0361   10.0634 H   0  0  0  0  0  0  0  0  0  0  0  0  # atno 3767 bound_to 3762
    1.8157  -20.5799    9.5930 H   0  0  0  0  0  0  0  0  0  0  0  0  # atno 3841 bound_to 3832
    3.4871  -10.0487    4.1852 LP  0  0  0  0  0  0  0  0  0  0  0  0  # atno 4297 bound_to 1298
    4.0272   -8.5229    3.9685 LP  0  0  0  0  0  0  0  0  0  0  0  0  # atno 4298 bound_to 1298
    0.4969   -8.3502    7.2023 LP  0  0  0  0  0  0  0  0  0  0  0  0  # atno 4299 bound_to 2456
    1.1650   -9.2812    8.3656 LP  0  0  0  0  0  0  0  0  0  0  0  0  # atno 4300 bound_to 2456
    2.0341   -7.8113    5.9020 LP  0  0  0  0  0  0  0  0  0  0  0  0  # atno 4301 bound_to 2510
    2.6892   -7.9326    4.4111 LP  0  0  0  0  0  0  0  0  0  0  0  0  # atno 4302 bound_to 2510
   -2.8854  -17.8642   13.1057 LP  0  0  0  0  0  0  0  0  0  0  0  0  # atno 4306 bound_to 3712
   -2.7909  -17.7765   14.7336 LP  0  0  0  0  0  0  0  0  0  0  0  0  # atno 4307 bound_to 3712
    2.0198  -19.6368    8.3105 LP  0  0  0  0  0  0  0  0  0  0  0  0  # atno 4314 bound_to 3832
    3.1121  -20.7956    8.6717 LP  0  0  0  0  0  0  0  0  0  0  0  0  # atno 4315 bound_to 3832
   -5.2027  -21.9178   11.2377 LP  0  0  0  0  0  0  0  0  0  0  0  0  # atno 4318 bound_to 3762
   -3.9149  -22.9213   11.2696 LP  0  0  0  0  0  0  0  0  0  0  0  0  # atno 4319 bound_to 3762
   -5.5034   -5.1836    8.4084 LP  0  0  0  0  0  0  0  0  0  0  0  0  # atno 4320 bound_to 2467
   -4.0102   -4.8204    7.8563 LP  0  0  0  0  0  0  0  0  0  0  0  0  # atno 4321 bound_to 2467

> <Gold.Score>
     Score     S(PLP)   S(hbond)     S(cho)   S(metal)  DE(clash)   DE(tors)     intcor
     31.28     -22.30       2.99       0.00       0.00       0.00       0.00       0.00

> <Gold.PLP.Fitness>
31.2761

> <Gold.PLP.PLP>
-22.3023

> <Gold.PLP.part.hbond>
-2.8684

> <Gold.PLP.part.metal>
0.0000

> <Gold.PLP.part.buried>
0.0565

> <Gold.PLP.part.nonpolar>
-21.0965

> <Gold.PLP.part.repulsive>
0.1980

> <Gold.PLP.ligand.clash>
0.0000

> <Gold.PLP.ligand.torsion>
0.0000

> <Gold.PLP.Chemscore.Hbond>
2.9913

> <Gold.PLP.Chemscore.CHOScore>
0.0000

> <Gold.PLP.Chemscore.Metal>
0.0000

> <Gold.Chemscore.Hbonds>
donor molecule, donor type, donor heavy atom, donor atom, acceptor molecule, acceptor atom, score
      L1  H     7    21       P1  1227  2.00
      P1  H  2305  2313       L1     3  0.99

> <Gold.PLP.Chemscore.Internal.Correction>
0.0000

