#       Name:                EN300-109827_i001
#       Creating user name   fsindt
#       Creation time:       Tue Feb 28 15:21:45 2023


#       File generated by GOLD software.
#

@<TRIPOS>MOLECULE
EN300-109827_i001|amine_7|mol2|6382|dock1
    21    22     1
SMALL
USER_CHARGES


@<TRIPOS>ATOM
      1 O1           1.0996 -11.1706   9.2216 O.2            1 <1>                0.0000
      2 C2           0.9131 -12.0876   8.4464 C.2            1 <1>                0.0000
      3 O3           0.5378 -11.9092   7.1714 O.3            1 <1>                0.0000
      4 C4           0.5210 -13.1968   6.4853 C.3            1 <1>                0.0000
      5 C5           1.0186 -14.1883   7.5479 C.3            1 <1>                0.0000
      6 C6          -0.0114 -15.2963   7.7870 C.3            1 <1>                0.0000
      7 N7           0.3360 -16.0023   9.0290 N.4            1 <1>                1.0000
      8 C8           0.1903 -15.1229  10.1936 C.3            1 <1>                0.0000
      9 C9           1.2060 -13.9723  10.1116 C.3            1 <1>                0.0000
     10 N10          1.0667 -13.3682   8.7783 N.am           1 <1>                0.0000
     11 H11         -0.4917 -13.4495   6.1710 H              1 <1>                0.0000
     12 H12          1.1958 -13.1829   5.6294 H              1 <1>                0.0000
     13 H13          1.9937 -14.5995   7.2867 H              1 <1>                0.0000
     14 H14         -1.0049 -14.8578   7.8812 H              1 <1>                0.0000
     15 H15          0.0041 -15.9964   6.9517 H              1 <1>                0.0000
     16 H16         -0.8196 -14.7134  10.2139 H              1 <1>                0.0000
     17 H17          0.3654 -15.6960  11.1041 H              1 <1>                0.0000
     18 H18          0.9919 -13.2312  10.8816 H              1 <1>                0.0000
     19 H19          2.2174 -14.3591  10.2369 H              1 <1>                0.0000
     20 H20         -0.2725 -16.7997   9.1380 H              1 <1>                0.0000
     21 H21          1.2916 -16.3213   8.9724 H              1 <1>                0.0000
@<TRIPOS>BOND
    1    1    2 2     
    2    2    3 1     
    3    2   10 am    
    4    3    4 1     
    5    4    5 1     
    6    4   11 1     
    7    4   12 1     
    8    5    6 1     
    9    5   10 1     
   10    5   13 1     
   11    6    7 1     
   12    6   14 1     
   13    6   15 1     
   14    7    8 1     
   15    7   20 1     
   16    7   21 1     
   17    8    9 1     
   18    8   16 1     
   19    8   17 1     
   20    9   10 1     
   21    9   18 1     
   22    9   19 1     
@<TRIPOS>SUBSTRUCTURE
      1 ****           1
@<TRIPOS>SET
DONOR_HYDROGENS      STATIC     ATOMS    <user>   **** ""
2 20 21
ATOM$RED        STATIC     ATOMS    COLORGROUP SYSTEM
2 20 21
@<TRIPOS>COMMENT
> <Gold.Version>
2022.2.0

> <Gold.Id.Protein>
3pbl|protein|mol2

> <Gold.Protein.RotatedTorsions>
[ 1303 1298 1297 1294 ] final  -14.51 input  179.99 | X-H torsion
[ 2461 2456 2455 2452 ] final -149.43 input   30.03 | X-H torsion
[ 2515 2510 2509 2506 ] final   30.77 input  -89.99 | X-H torsion
[ 3721 3712 3711 3710 ] final  -30.86 input -179.91 | X-H torsion
[ 3841 3832 3831 3830 ] final   18.54 input -179.91 | X-H torsion
[ 3767 3762 3761 3758 ] final  153.34 input  -89.99 | X-H torsion
[ 2472 2467 2466 2463 ] final   90.45 input  -89.97 | X-H torsion

> <Gold.Protein.ActiveResidues>
 VAL82   VAL86   LEU89   PHE106  VAL107  ASP110  VAL111  MET112  CYS114  THR115 
 CYS181  SER182  ILE183  PHE188  VAL189  ILE190  SER192  SER193  SER196  TRP342 
 PHE345  PHE346  HIS349  VAL350  TYR365  THR369  GLY372  TYR373 

> <Gold.Protein.RotatedAtoms>
    3.3359   -9.6695    3.9337 H   0  0  0  0  0  0  0  0  0  0  0  0  # atno 1303 bound_to 1298
    0.9685   -9.2870    8.3028 H   0  0  0  0  0  0  0  0  0  0  0  0  # atno 2461 bound_to 2456
   -5.1072   -4.9212    7.7989 H   0  0  0  0  0  0  0  0  0  0  0  0  # atno 2472 bound_to 2467
    2.3268   -7.4217    5.0094 H   0  0  0  0  0  0  0  0  0  0  0  0  # atno 2515 bound_to 2510
   -2.6078  -17.6904   14.5986 H   0  0  0  0  0  0  0  0  0  0  0  0  # atno 3721 bound_to 3712
   -3.9284  -22.8586   11.3314 H   0  0  0  0  0  0  0  0  0  0  0  0  # atno 3767 bound_to 3762
    1.9259  -20.6832    9.6172 H   0  0  0  0  0  0  0  0  0  0  0  0  # atno 3841 bound_to 3832
    4.4260   -8.4913    4.2333 LP  0  0  0  0  0  0  0  0  0  0  0  0  # atno 4297 bound_to 1298
    4.6006   -9.9603    4.9247 LP  0  0  0  0  0  0  0  0  0  0  0  0  # atno 4298 bound_to 1298
    2.1400   -8.3039    7.7296 LP  0  0  0  0  0  0  0  0  0  0  0  0  # atno 4299 bound_to 2456
    0.6292   -8.2175    7.1159 LP  0  0  0  0  0  0  0  0  0  0  0  0  # atno 4300 bound_to 2456
    2.8224   -8.9230    4.6017 LP  0  0  0  0  0  0  0  0  0  0  0  0  # atno 4301 bound_to 2510
    2.1475   -8.6549    6.0643 LP  0  0  0  0  0  0  0  0  0  0  0  0  # atno 4302 bound_to 2510
   -3.5578  -16.5556   13.9758 LP  0  0  0  0  0  0  0  0  0  0  0  0  # atno 4306 bound_to 3712
   -2.9591  -17.7469   13.0329 LP  0  0  0  0  0  0  0  0  0  0  0  0  # atno 4307 bound_to 3712
    1.8764  -19.6379    8.4003 LP  0  0  0  0  0  0  0  0  0  0  0  0  # atno 4314 bound_to 3832
    3.1282  -20.6752    8.5540 LP  0  0  0  0  0  0  0  0  0  0  0  0  # atno 4315 bound_to 3832
   -4.9387  -23.0893   10.0693 LP  0  0  0  0  0  0  0  0  0  0  0  0  # atno 4318 bound_to 3762
   -5.2601  -21.9272   11.1705 LP  0  0  0  0  0  0  0  0  0  0  0  0  # atno 4319 bound_to 3762
   -3.6378   -5.0133    8.5053 LP  0  0  0  0  0  0  0  0  0  0  0  0  # atno 4320 bound_to 2467
   -4.9720   -5.4590    9.3348 LP  0  0  0  0  0  0  0  0  0  0  0  0  # atno 4321 bound_to 2467

> <Gold.Score>
     Score     S(PLP)   S(hbond)     S(cho)   S(metal)  DE(clash)   DE(tors)     intcor
     39.18     -30.23       2.98       0.00       0.00       0.00       0.00       0.00

> <Gold.PLP.Fitness>
39.1810

> <Gold.PLP.PLP>
-30.2290

> <Gold.PLP.part.hbond>
-2.0000

> <Gold.PLP.part.metal>
0.0000

> <Gold.PLP.part.buried>
-3.9545

> <Gold.PLP.part.nonpolar>
-24.7283

> <Gold.PLP.part.repulsive>
0.0058

> <Gold.PLP.ligand.clash>
0.0000

> <Gold.PLP.ligand.torsion>
0.0000

> <Gold.PLP.Chemscore.Hbond>
2.9840

> <Gold.PLP.Chemscore.CHOScore>
0.0000

> <Gold.PLP.Chemscore.Metal>
0.0000

> <Gold.Chemscore.Hbonds>
donor molecule, donor type, donor heavy atom, donor atom, acceptor molecule, acceptor atom, score
      L1  H     7    21       P1  1227  1.98
      P1  H  2456  2461       L1     1  1.00

> <Gold.PLP.Chemscore.Internal.Correction>
0.0000

