#       Name:                EN300-109827_i001
#       Creating user name   fsindt
#       Creation time:       Tue Feb 28 15:21:49 2023


#       File generated by GOLD software.
#

@<TRIPOS>MOLECULE
EN300-109827_i001|amine_7|mol2|6382|dock19
    21    22     1
SMALL
USER_CHARGES


@<TRIPOS>ATOM
      1 O1           0.5074 -10.9530   7.2004 O.2            1 <1>                0.0000
      2 C2           0.5985 -11.9428   7.8994 C.2            1 <1>                0.0000
      3 O3           1.0008 -13.1359   7.4375 O.3            1 <1>                0.0000
      4 C4           1.1168 -14.0733   8.5496 C.3            1 <1>                0.0000
      5 C5           0.7799 -13.2247   9.7850 C.3            1 <1>                0.0000
      6 C6          -0.4012 -13.8235  10.5543 C.3            1 <1>                0.0000
      7 N7          -0.9055 -12.8176  11.5008 N.4            1 <1>                1.0000
      8 C8          -1.4856 -11.6718  10.7927 C.3            1 <1>                0.0000
      9 C9          -0.3921 -10.9368  10.0011 C.3            1 <1>                0.0000
     10 N10          0.3140 -11.9479   9.2004 N.am           1 <1>                0.0000
     11 H11          0.4015 -14.8883   8.4390 H              1 <1>                0.0000
     12 H12          2.1329 -14.4617   8.6180 H              1 <1>                0.0000
     13 H13          1.6494 -13.0917  10.4288 H              1 <1>                0.0000
     14 H14         -1.1919 -14.0970   9.8555 H              1 <1>                0.0000
     15 H15         -0.0715 -14.7070  11.1009 H              1 <1>                0.0000
     16 H16         -2.2557 -12.0227  10.1058 H              1 <1>                0.0000
     17 H17         -1.9312 -10.9877  11.5149 H              1 <1>                0.0000
     18 H18         -0.8437 -10.1911   9.3469 H              1 <1>                0.0000
     19 H19          0.3057 -10.4575  10.6876 H              1 <1>                0.0000
     20 H20         -1.6123 -13.2379  12.0854 H              1 <1>                0.0000
     21 H21         -0.1444 -12.4977  12.0808 H              1 <1>                0.0000
@<TRIPOS>BOND
    1    1    2 2     
    2    2    3 1     
    3    2   10 am    
    4    3    4 1     
    5    4    5 1     
    6    4   11 1     
    7    4   12 1     
    8    5    6 1     
    9    5   10 1     
   10    5   13 1     
   11    6    7 1     
   12    6   14 1     
   13    6   15 1     
   14    7    8 1     
   15    7   20 1     
   16    7   21 1     
   17    8    9 1     
   18    8   16 1     
   19    8   17 1     
   20    9   10 1     
   21    9   18 1     
   22    9   19 1     
@<TRIPOS>SUBSTRUCTURE
      1 ****           1
@<TRIPOS>SET
DONOR_HYDROGENS      STATIC     ATOMS    <user>   **** ""
2 20 21
ATOM$RED        STATIC     ATOMS    COLORGROUP SYSTEM
2 20 21
@<TRIPOS>COMMENT
> <Gold.Version>
2022.2.0

> <Gold.Id.Protein>
3pbl|protein|mol2

> <Gold.Protein.RotatedTorsions>
[ 1303 1298 1297 1294 ] final  -70.81 input  179.99 | X-H torsion
[ 2461 2456 2455 2452 ] final -128.57 input   30.03 | X-H torsion
[ 2515 2510 2509 2506 ] final -105.58 input  -89.99 | X-H torsion
[ 3721 3712 3711 3710 ] final   -3.22 input -179.91 | X-H torsion
[ 3841 3832 3831 3830 ] final   92.91 input -179.91 | X-H torsion
[ 3767 3762 3761 3758 ] final  -26.18 input  -89.99 | X-H torsion
[ 2472 2467 2466 2463 ] final -117.72 input  -89.97 | X-H torsion

> <Gold.Protein.ActiveResidues>
 VAL82   VAL86   LEU89   PHE106  VAL107  ASP110  VAL111  MET112  CYS114  THR115 
 CYS181  SER182  ILE183  PHE188  VAL189  ILE190  SER192  SER193  SER196  TRP342 
 PHE345  PHE346  HIS349  VAL350  TYR365  THR369  GLY372  TYR373 

> <Gold.Protein.RotatedAtoms>
    3.6014   -8.8323    3.7933 H   0  0  0  0  0  0  0  0  0  0  0  0  # atno 1303 bound_to 1298
    0.6760   -9.2244    8.1382 H   0  0  0  0  0  0  0  0  0  0  0  0  # atno 2461 bound_to 2456
   -4.4644   -5.4387    9.4311 H   0  0  0  0  0  0  0  0  0  0  0  0  # atno 2472 bound_to 2467
    2.7775   -9.0992    4.7985 H   0  0  0  0  0  0  0  0  0  0  0  0  # atno 2515 bound_to 2510
   -2.4943  -17.9369   14.2862 H   0  0  0  0  0  0  0  0  0  0  0  0  # atno 3721 bound_to 3712
   -5.4878  -22.3964   10.3768 H   0  0  0  0  0  0  0  0  0  0  0  0  # atno 3767 bound_to 3762
    2.8727  -20.9097    9.2339 H   0  0  0  0  0  0  0  0  0  0  0  0  # atno 3841 bound_to 3832
    4.8976   -9.0239    4.7677 LP  0  0  0  0  0  0  0  0  0  0  0  0  # atno 4297 bound_to 1298
    3.8634  -10.2653    4.5308 LP  0  0  0  0  0  0  0  0  0  0  0  0  # atno 4298 bound_to 1298
    2.1512   -8.5433    7.9726 LP  0  0  0  0  0  0  0  0  0  0  0  0  # atno 4299 bound_to 2456
    0.9104   -8.0407    7.0375 LP  0  0  0  0  0  0  0  0  0  0  0  0  # atno 4300 bound_to 2456
    2.0785   -8.3978    6.0966 LP  0  0  0  0  0  0  0  0  0  0  0  0  # atno 4301 bound_to 2510
    2.4405   -7.5017    4.7804 LP  0  0  0  0  0  0  0  0  0  0  0  0  # atno 4302 bound_to 2510
   -3.4595  -16.6598   14.4102 LP  0  0  0  0  0  0  0  0  0  0  0  0  # atno 4306 bound_to 3712
   -3.1884  -17.3581   12.9592 LP  0  0  0  0  0  0  0  0  0  0  0  0  # atno 4307 bound_to 3712
    1.4040  -20.2626    9.2521 LP  0  0  0  0  0  0  0  0  0  0  0  0  # atno 4314 bound_to 3832
    2.5069  -19.7888    8.1450 LP  0  0  0  0  0  0  0  0  0  0  0  0  # atno 4315 bound_to 3832
   -4.4862  -22.1566   11.6442 LP  0  0  0  0  0  0  0  0  0  0  0  0  # atno 4318 bound_to 3762
   -4.1536  -23.3220   10.5499 LP  0  0  0  0  0  0  0  0  0  0  0  0  # atno 4319 bound_to 3762
   -5.4330   -5.0879    8.1642 LP  0  0  0  0  0  0  0  0  0  0  0  0  # atno 4320 bound_to 2467
   -3.8195   -4.8671    8.0441 LP  0  0  0  0  0  0  0  0  0  0  0  0  # atno 4321 bound_to 2467

> <Gold.Score>
     Score     S(PLP)   S(hbond)     S(cho)   S(metal)  DE(clash)   DE(tors)     intcor
     30.59     -28.53       0.69       0.00       0.00       0.00       0.00       0.00

> <Gold.PLP.Fitness>
30.5928

> <Gold.PLP.PLP>
-28.5288

> <Gold.PLP.part.hbond>
-1.0000

> <Gold.PLP.part.metal>
0.0000

> <Gold.PLP.part.buried>
-4.4171

> <Gold.PLP.part.nonpolar>
-23.6802

> <Gold.PLP.part.repulsive>
0.1455

> <Gold.PLP.ligand.clash>
0.0000

> <Gold.PLP.ligand.torsion>
0.0000

> <Gold.PLP.Chemscore.Hbond>
0.6880

> <Gold.PLP.Chemscore.CHOScore>
0.0000

> <Gold.PLP.Chemscore.Metal>
0.0000

> <Gold.Chemscore.Hbonds>
donor molecule, donor type, donor heavy atom, donor atom, acceptor molecule, acceptor atom, score
      P1  H  2456  2461       L1     1  0.69

> <Gold.PLP.Chemscore.Internal.Correction>
0.0000

