#       Name:                EN300-109827_i001
#       Creating user name   fsindt
#       Creation time:       Tue Feb 28 15:21:48 2023


#       File generated by GOLD software.
#

@<TRIPOS>MOLECULE
EN300-109827_i001|amine_7|mol2|6382|dock13
    21    22     1
SMALL
USER_CHARGES


@<TRIPOS>ATOM
      1 O1           0.2009 -11.0230   7.5033 O.2            1 <1>                0.0000
      2 C2           0.4908 -12.1757   7.7562 C.2            1 <1>                0.0000
      3 O3           0.8229 -13.0742   6.8177 O.3            1 <1>                0.0000
      4 C4           1.2303 -14.3194   7.4601 C.3            1 <1>                0.0000
      5 C5           1.1544 -14.0029   8.9614 C.3            1 <1>                0.0000
      6 C6           0.2080 -14.9711   9.6773 C.3            1 <1>                0.0000
      7 N7          -0.1037 -14.4279  11.0075 N.4            1 <1>                1.0000
      8 C8          -0.8773 -13.1864  10.9018 C.3            1 <1>                0.0000
      9 C9          -0.0268 -12.0946  10.2333 C.3            1 <1>                0.0000
     10 N10          0.5152 -12.6689   8.9930 N.am           1 <1>                0.0000
     11 H11          0.5421 -15.1249   7.2039 H              1 <1>                0.0000
     12 H12          2.2495 -14.5809   7.1755 H              1 <1>                0.0000
     13 H13          2.1431 -13.9985   9.4203 H              1 <1>                0.0000
     14 H14         -0.7111 -15.0773   9.1009 H              1 <1>                0.0000
     15 H15          0.6904 -15.9429   9.7829 H              1 <1>                0.0000
     16 H16         -1.7706 -13.3662  10.3037 H              1 <1>                0.0000
     17 H17         -1.1709 -12.8569  11.8984 H              1 <1>                0.0000
     18 H18         -0.6469 -11.2281  10.0038 H              1 <1>                0.0000
     19 H19          0.7911 -11.8040  10.8927 H              1 <1>                0.0000
     20 H20         -0.6388 -15.1082  11.5260 H              1 <1>                0.0000
     21 H21          0.7574 -14.2407  11.4989 H              1 <1>                0.0000
@<TRIPOS>BOND
    1    1    2 2     
    2    2    3 1     
    3    2   10 am    
    4    3    4 1     
    5    4    5 1     
    6    4   11 1     
    7    4   12 1     
    8    5    6 1     
    9    5   10 1     
   10    5   13 1     
   11    6    7 1     
   12    6   14 1     
   13    6   15 1     
   14    7    8 1     
   15    7   20 1     
   16    7   21 1     
   17    8    9 1     
   18    8   16 1     
   19    8   17 1     
   20    9   10 1     
   21    9   18 1     
   22    9   19 1     
@<TRIPOS>SUBSTRUCTURE
      1 ****           1
@<TRIPOS>SET
DONOR_HYDROGENS      STATIC     ATOMS    <user>   **** ""
2 20 21
ATOM$RED        STATIC     ATOMS    COLORGROUP SYSTEM
2 20 21
@<TRIPOS>COMMENT
> <Gold.Version>
2022.2.0

> <Gold.Id.Protein>
3pbl|protein|mol2

> <Gold.Protein.RotatedTorsions>
[ 1303 1298 1297 1294 ] final  117.99 input  179.99 | X-H torsion
[ 2461 2456 2455 2452 ] final -121.15 input   30.03 | X-H torsion
[ 2515 2510 2509 2506 ] final  160.78 input  -89.99 | X-H torsion
[ 3721 3712 3711 3710 ] final  -32.74 input -179.91 | X-H torsion
[ 3841 3832 3831 3830 ] final    5.65 input -179.91 | X-H torsion
[ 3767 3762 3761 3758 ] final -176.74 input  -89.99 | X-H torsion
[ 2472 2467 2466 2463 ] final -170.95 input  -89.97 | X-H torsion

> <Gold.Protein.ActiveResidues>
 VAL82   VAL86   LEU89   PHE106  VAL107  ASP110  VAL111  MET112  CYS114  THR115 
 CYS181  SER182  ILE183  PHE188  VAL189  ILE190  SER192  SER193  SER196  TRP342 
 PHE345  PHE346  HIS349  VAL350  TYR365  THR369  GLY372  TYR373 

> <Gold.Protein.RotatedAtoms>
    4.7249   -9.7991    4.9492 H   0  0  0  0  0  0  0  0  0  0  0  0  # atno 1303 bound_to 1298
    0.5883   -9.1817    8.0649 H   0  0  0  0  0  0  0  0  0  0  0  0  # atno 2461 bound_to 2456
   -5.2538   -5.4176    9.1315 H   0  0  0  0  0  0  0  0  0  0  0  0  # atno 2472 bound_to 2467
    2.2019   -8.8006    6.0103 H   0  0  0  0  0  0  0  0  0  0  0  0  # atno 2515 bound_to 2510
   -2.6184  -17.6694   14.6146 H   0  0  0  0  0  0  0  0  0  0  0  0  # atno 3721 bound_to 3712
   -4.1249  -22.4927   11.5853 H   0  0  0  0  0  0  0  0  0  0  0  0  # atno 3767 bound_to 3762
    1.7885  -20.5500    9.5831 H   0  0  0  0  0  0  0  0  0  0  0  0  # atno 3841 bound_to 3832
    3.3763   -9.8462    4.0297 LP  0  0  0  0  0  0  0  0  0  0  0  0  # atno 4297 bound_to 1298
    4.2607   -8.4759    4.1125 LP  0  0  0  0  0  0  0  0  0  0  0  0  # atno 4298 bound_to 1298
    2.1262   -8.6320    8.0525 LP  0  0  0  0  0  0  0  0  0  0  0  0  # atno 4299 bound_to 2456
    1.0231   -7.9947    7.0308 LP  0  0  0  0  0  0  0  0  0  0  0  0  # atno 4300 bound_to 2456
    2.2605   -7.4083    5.1594 LP  0  0  0  0  0  0  0  0  0  0  0  0  # atno 4301 bound_to 2510
    2.8344   -8.7900    4.5051 LP  0  0  0  0  0  0  0  0  0  0  0  0  # atno 4302 bound_to 2510
   -3.5607  -16.5554   13.9446 LP  0  0  0  0  0  0  0  0  0  0  0  0  # atno 4306 bound_to 3712
   -2.9440  -17.7712   13.0457 LP  0  0  0  0  0  0  0  0  0  0  0  0  # atno 4307 bound_to 3712
    2.0603  -19.6406    8.2888 LP  0  0  0  0  0  0  0  0  0  0  0  0  # atno 4314 bound_to 3832
    3.1031  -20.8264    8.7048 LP  0  0  0  0  0  0  0  0  0  0  0  0  # atno 4315 bound_to 3832
   -4.5247  -23.2958   10.2208 LP  0  0  0  0  0  0  0  0  0  0  0  0  # atno 4318 bound_to 3762
   -5.4775  -22.0865   10.7653 LP  0  0  0  0  0  0  0  0  0  0  0  0  # atno 4319 bound_to 3762
   -4.7894   -4.8411    7.6760 LP  0  0  0  0  0  0  0  0  0  0  0  0  # atno 4320 bound_to 2467
   -3.6738   -5.1349    8.8317 LP  0  0  0  0  0  0  0  0  0  0  0  0  # atno 4321 bound_to 2467

> <Gold.Score>
     Score     S(PLP)   S(hbond)     S(cho)   S(metal)  DE(clash)   DE(tors)     intcor
     31.82     -28.99       0.94       0.00       0.00       0.00       0.00       0.00

> <Gold.PLP.Fitness>
31.8243

> <Gold.PLP.PLP>
-28.9923

> <Gold.PLP.part.hbond>
-1.0000

> <Gold.PLP.part.metal>
0.0000

> <Gold.PLP.part.buried>
-3.8362

> <Gold.PLP.part.nonpolar>
-24.0996

> <Gold.PLP.part.repulsive>
0.0790

> <Gold.PLP.ligand.clash>
0.0000

> <Gold.PLP.ligand.torsion>
0.0000

> <Gold.PLP.Chemscore.Hbond>
0.9440

> <Gold.PLP.Chemscore.CHOScore>
0.0000

> <Gold.PLP.Chemscore.Metal>
0.0000

> <Gold.Chemscore.Hbonds>
donor molecule, donor type, donor heavy atom, donor atom, acceptor molecule, acceptor atom, score
      P1  H  2456  2461       L1     1  0.94

> <Gold.PLP.Chemscore.Internal.Correction>
0.0000

