#       Name:                EN300-109827_i001
#       Creating user name   fsindt
#       Creation time:       Tue Feb 28 15:21:49 2023


#       File generated by GOLD software.
#

@<TRIPOS>MOLECULE
EN300-109827_i001|amine_7|mol2|6382|dock17
    21    22     1
SMALL
USER_CHARGES


@<TRIPOS>ATOM
      1 O1          -1.3331 -19.6227  13.4698 O.2            1 <1>                0.0000
      2 C2          -0.2249 -19.1774  13.6933 C.2            1 <1>                0.0000
      3 O3           0.4741 -19.4639  14.8014 O.3            1 <1>                0.0000
      4 C4           1.8041 -18.8719  14.7034 C.3            1 <1>                0.0000
      5 C5           1.8205 -18.2288  13.3084 C.3            1 <1>                0.0000
      6 C6           2.1226 -16.7302  13.4006 C.3            1 <1>                0.0000
      7 N7           1.7866 -16.1020  12.1144 N.4            1 <1>                1.0000
      8 C8           0.3433 -16.1596  11.8608 C.3            1 <1>                0.0000
      9 C9          -0.1024 -17.6217  11.6995 C.3            1 <1>                0.0000
     10 N10          0.4170 -18.3614  12.8593 N.am           1 <1>                0.0000
     11 H11          1.9436 -18.1149  15.4751 H              1 <1>                0.0000
     12 H12          2.5719 -19.6420  14.7785 H              1 <1>                0.0000
     13 H13          2.5177 -18.7362  12.6416 H              1 <1>                0.0000
     14 H14          1.5220 -16.2842  14.1935 H              1 <1>                0.0000
     15 H15          3.1813 -16.5830  13.6140 H              1 <1>                0.0000
     16 H16         -0.1897 -15.7091  12.6981 H              1 <1>                0.0000
     17 H17          0.1137 -15.6085  10.9488 H              1 <1>                0.0000
     18 H18         -1.1906 -17.6788  11.6770 H              1 <1>                0.0000
     19 H19          0.3123 -18.0379  10.7814 H              1 <1>                0.0000
     20 H20          2.0818 -15.1373  12.1299 H              1 <1>                0.0000
     21 H21          2.2726 -16.5843  11.3733 H              1 <1>                0.0000
@<TRIPOS>BOND
    1    1    2 2     
    2    2    3 1     
    3    2   10 am    
    4    3    4 1     
    5    4    5 1     
    6    4   11 1     
    7    4   12 1     
    8    5    6 1     
    9    5   10 1     
   10    5   13 1     
   11    6    7 1     
   12    6   14 1     
   13    6   15 1     
   14    7    8 1     
   15    7   20 1     
   16    7   21 1     
   17    8    9 1     
   18    8   16 1     
   19    8   17 1     
   20    9   10 1     
   21    9   18 1     
   22    9   19 1     
@<TRIPOS>SUBSTRUCTURE
      1 ****           1
@<TRIPOS>SET
DONOR_HYDROGENS      STATIC     ATOMS    <user>   **** ""
2 20 21
ATOM$RED        STATIC     ATOMS    COLORGROUP SYSTEM
2 20 21
@<TRIPOS>COMMENT
> <Gold.Version>
2022.2.0

> <Gold.Id.Protein>
3pbl|protein|mol2

> <Gold.Protein.RotatedTorsions>
[ 1303 1298 1297 1294 ] final   -9.52 input  179.99 | X-H torsion
[ 2461 2456 2455 2452 ] final -146.61 input   30.03 | X-H torsion
[ 2515 2510 2509 2506 ] final    4.26 input  -89.99 | X-H torsion
[ 3721 3712 3711 3710 ] final   33.24 input -179.91 | X-H torsion
[ 3841 3832 3831 3830 ] final  147.13 input -179.91 | X-H torsion
[ 3767 3762 3761 3758 ] final  173.50 input  -89.99 | X-H torsion
[ 2472 2467 2466 2463 ] final -137.20 input  -89.97 | X-H torsion

> <Gold.Protein.ActiveResidues>
 VAL82   VAL86   LEU89   PHE106  VAL107  ASP110  VAL111  MET112  CYS114  THR115 
 CYS181  SER182  ILE183  PHE188  VAL189  ILE190  SER192  SER193  SER196  TRP342 
 PHE345  PHE346  HIS349  VAL350  TYR365  THR369  GLY372  TYR373 

> <Gold.Protein.RotatedAtoms>
    3.3476   -9.7421    3.9699 H   0  0  0  0  0  0  0  0  0  0  0  0  # atno 1303 bound_to 1298
    0.9259   -9.2837    8.2846 H   0  0  0  0  0  0  0  0  0  0  0  0  # atno 2461 bound_to 2456
   -4.7812   -5.4636    9.4035 H   0  0  0  0  0  0  0  0  0  0  0  0  # atno 2472 bound_to 2467
    2.5118   -7.5865    4.6553 H   0  0  0  0  0  0  0  0  0  0  0  0  # atno 2515 bound_to 2510
   -2.4892  -18.0288   13.7521 H   0  0  0  0  0  0  0  0  0  0  0  0  # atno 3721 bound_to 3712
   -4.0401  -22.6130   11.5215 H   0  0  0  0  0  0  0  0  0  0  0  0  # atno 3767 bound_to 3762
    3.1288  -20.4395    8.6543 H   0  0  0  0  0  0  0  0  0  0  0  0  # atno 3841 bound_to 3832
    4.3614   -8.4801    4.1841 LP  0  0  0  0  0  0  0  0  0  0  0  0  # atno 4297 bound_to 1298
    4.6534   -9.8991    4.9377 LP  0  0  0  0  0  0  0  0  0  0  0  0  # atno 4298 bound_to 1298
    2.1486   -8.3346    7.7633 LP  0  0  0  0  0  0  0  0  0  0  0  0  # atno 4299 bound_to 2456
    0.6632   -8.1901    7.1004 LP  0  0  0  0  0  0  0  0  0  0  0  0  # atno 4300 bound_to 2456
    2.7352   -9.1788    4.9391 LP  0  0  0  0  0  0  0  0  0  0  0  0  # atno 4301 bound_to 2510
    2.0497   -8.2341    6.0811 LP  0  0  0  0  0  0  0  0  0  0  0  0  # atno 4302 bound_to 2510
   -3.2062  -17.0419   14.7959 LP  0  0  0  0  0  0  0  0  0  0  0  0  # atno 4306 bound_to 3712
   -3.4476  -16.8698   13.1901 LP  0  0  0  0  0  0  0  0  0  0  0  0  # atno 4307 bound_to 3712
    1.8873  -20.9266    9.5474 LP  0  0  0  0  0  0  0  0  0  0  0  0  # atno 4314 bound_to 3832
    1.7279  -19.6680    8.5192 LP  0  0  0  0  0  0  0  0  0  0  0  0  # atno 4315 bound_to 3832
   -4.6598  -23.2463   10.1496 LP  0  0  0  0  0  0  0  0  0  0  0  0  # atno 4318 bound_to 3762
   -5.4272  -22.0157   10.9002 LP  0  0  0  0  0  0  0  0  0  0  0  0  # atno 4319 bound_to 3762
   -5.2596   -4.9804    7.9189 LP  0  0  0  0  0  0  0  0  0  0  0  0  # atno 4320 bound_to 2467
   -3.6761   -4.9496    8.3168 LP  0  0  0  0  0  0  0  0  0  0  0  0  # atno 4321 bound_to 2467

> <Gold.Score>
     Score     S(PLP)   S(hbond)     S(cho)   S(metal)  DE(clash)   DE(tors)     intcor
     30.07     -21.07       3.00       0.00       0.00       0.00       0.00       0.00

> <Gold.PLP.Fitness>
30.0676

> <Gold.PLP.PLP>
-21.0676

> <Gold.PLP.part.hbond>
-2.0000

> <Gold.PLP.part.metal>
0.0000

> <Gold.PLP.part.buried>
-3.2331

> <Gold.PLP.part.nonpolar>
-16.6394

> <Gold.PLP.part.repulsive>
0.0470

> <Gold.PLP.ligand.clash>
0.0000

> <Gold.PLP.ligand.torsion>
0.0000

> <Gold.PLP.Chemscore.Hbond>
3.0000

> <Gold.PLP.Chemscore.CHOScore>
0.0000

> <Gold.PLP.Chemscore.Metal>
0.0000

> <Gold.Chemscore.Hbonds>
donor molecule, donor type, donor heavy atom, donor atom, acceptor molecule, acceptor atom, score
      L1  H     7    21       P1  1227  2.00
      P1  H  3712  3721       L1     1  1.00

> <Gold.PLP.Chemscore.Internal.Correction>
0.0000

