#       Name:                EN300-109827_i001
#       Creating user name   fsindt
#       Creation time:       Tue Feb 28 15:21:46 2023


#       File generated by GOLD software.
#

@<TRIPOS>MOLECULE
EN300-109827_i001|amine_7|mol2|6382|dock4
    21    22     1
SMALL
USER_CHARGES


@<TRIPOS>ATOM
      1 O1          -0.1537 -15.7622  14.9805 O.2            1 <1>                0.0000
      2 C2          -0.0355 -16.8205  14.3951 C.2            1 <1>                0.0000
      3 O3          -0.7750 -17.9035  14.6756 O.3            1 <1>                0.0000
      4 C4          -0.4717 -18.9604  13.7164 C.3            1 <1>                0.0000
      5 C5           0.5356 -18.3100  12.7560 C.3            1 <1>                0.0000
      6 C6           1.8429 -19.1066  12.7129 C.3            1 <1>                0.0000
      7 N7           2.8778 -18.2793  12.0753 N.4            1 <1>                1.0000
      8 C8           3.2000 -17.1102  12.8999 C.3            1 <1>                0.0000
      9 C9           1.9770 -16.1843  12.9967 C.3            1 <1>                0.0000
     10 N10          0.8372 -17.0168  13.4085 N.am           1 <1>                0.0000
     11 H11         -0.0221 -19.8163  14.2198 H              1 <1>                0.0000
     12 H12         -1.3721 -19.2605  13.1804 H              1 <1>                0.0000
     13 H13          0.1133 -18.1817  11.7594 H              1 <1>                0.0000
     14 H14          2.1506 -19.3596  13.7275 H              1 <1>                0.0000
     15 H15          1.6963 -20.0189  12.1345 H              1 <1>                0.0000
     16 H16          3.4847 -17.4393  13.8992 H              1 <1>                0.0000
     17 H17          4.0304 -16.5669  12.4490 H              1 <1>                0.0000
     18 H18          2.1575 -15.4055  13.7376 H              1 <1>                0.0000
     19 H19          1.7727 -15.7348  12.0250 H              1 <1>                0.0000
     20 H20          3.7112 -18.8331  11.9459 H              1 <1>                0.0000
     21 H21          2.5448 -17.9681  11.1751 H              1 <1>                0.0000
@<TRIPOS>BOND
    1    1    2 2     
    2    2    3 1     
    3    2   10 am    
    4    3    4 1     
    5    4    5 1     
    6    4   11 1     
    7    4   12 1     
    8    5    6 1     
    9    5   10 1     
   10    5   13 1     
   11    6    7 1     
   12    6   14 1     
   13    6   15 1     
   14    7    8 1     
   15    7   20 1     
   16    7   21 1     
   17    8    9 1     
   18    8   16 1     
   19    8   17 1     
   20    9   10 1     
   21    9   18 1     
   22    9   19 1     
@<TRIPOS>SUBSTRUCTURE
      1 ****           1
@<TRIPOS>SET
DONOR_HYDROGENS      STATIC     ATOMS    <user>   **** ""
2 20 21
ATOM$RED        STATIC     ATOMS    COLORGROUP SYSTEM
2 20 21
@<TRIPOS>COMMENT
> <Gold.Version>
2022.2.0

> <Gold.Id.Protein>
3pbl|protein|mol2

> <Gold.Protein.RotatedTorsions>
[ 1303 1298 1297 1294 ] final  -32.60 input  179.99 | X-H torsion
[ 2461 2456 2455 2452 ] final   38.82 input   30.03 | X-H torsion
[ 2515 2510 2509 2506 ] final -144.93 input  -89.99 | X-H torsion
[ 3721 3712 3711 3710 ] final  -18.16 input -179.91 | X-H torsion
[ 3841 3832 3831 3830 ] final  151.22 input -179.91 | X-H torsion
[ 3767 3762 3761 3758 ] final  -51.32 input  -89.99 | X-H torsion
[ 2472 2467 2466 2463 ] final   97.46 input  -89.97 | X-H torsion

> <Gold.Protein.ActiveResidues>
 VAL82   VAL86   LEU89   PHE106  VAL107  ASP110  VAL111  MET112  CYS114  THR115 
 CYS181  SER182  ILE183  PHE188  VAL189  ILE190  SER192  SER193  SER196  TRP342 
 PHE345  PHE346  HIS349  VAL350  TYR365  THR369  GLY372  TYR373 

> <Gold.Protein.RotatedAtoms>
    3.3434   -9.3916    3.8310 H   0  0  0  0  0  0  0  0  0  0  0  0  # atno 1303 bound_to 1298
    1.6456   -7.9327    7.1863 H   0  0  0  0  0  0  0  0  0  0  0  0  # atno 2461 bound_to 2456
   -5.1972   -4.9542    7.8629 H   0  0  0  0  0  0  0  0  0  0  0  0  # atno 2472 bound_to 2467
    2.5668   -9.2534    5.3769 H   0  0  0  0  0  0  0  0  0  0  0  0  # atno 2515 bound_to 2510
   -2.5453  -17.8192   14.4715 H   0  0  0  0  0  0  0  0  0  0  0  0  # atno 3721 bound_to 3712
   -5.4956  -22.1321   10.6907 H   0  0  0  0  0  0  0  0  0  0  0  0  # atno 3767 bound_to 3762
    3.1207  -20.3915    8.6163 H   0  0  0  0  0  0  0  0  0  0  0  0  # atno 3841 bound_to 3832
    4.6376   -8.5871    4.4176 LP  0  0  0  0  0  0  0  0  0  0  0  0  # atno 4297 bound_to 1298
    4.3815  -10.1427    4.8432 LP  0  0  0  0  0  0  0  0  0  0  0  0  # atno 4298 bound_to 1298
    0.3330   -8.8099    7.6043 LP  0  0  0  0  0  0  0  0  0  0  0  0  # atno 4299 bound_to 2456
    1.7593   -9.0654    8.3574 LP  0  0  0  0  0  0  0  0  0  0  0  0  # atno 4300 bound_to 2456
    2.0353   -7.7982    5.8924 LP  0  0  0  0  0  0  0  0  0  0  0  0  # atno 4301 bound_to 2510
    2.6946   -7.9470    4.4059 LP  0  0  0  0  0  0  0  0  0  0  0  0  # atno 4302 bound_to 2510
   -3.5252  -16.5804   14.1835 LP  0  0  0  0  0  0  0  0  0  0  0  0  # atno 4306 bound_to 3712
   -3.0639  -17.5733   12.9720 LP  0  0  0  0  0  0  0  0  0  0  0  0  # atno 4307 bound_to 3712
    1.9443  -20.9642    9.5458 LP  0  0  0  0  0  0  0  0  0  0  0  0  # atno 4314 bound_to 3832
    1.6801  -19.6858    8.5648 LP  0  0  0  0  0  0  0  0  0  0  0  0  # atno 4315 bound_to 3832
   -4.1801  -22.4278   11.6120 LP  0  0  0  0  0  0  0  0  0  0  0  0  # atno 4318 bound_to 3762
   -4.4520  -23.3150   10.2683 LP  0  0  0  0  0  0  0  0  0  0  0  0  # atno 4319 bound_to 3762
   -3.6544   -4.9762    8.3974 LP  0  0  0  0  0  0  0  0  0  0  0  0  # atno 4320 bound_to 2467
   -4.8655   -5.4631    9.3786 LP  0  0  0  0  0  0  0  0  0  0  0  0  # atno 4321 bound_to 2467

> <Gold.Score>
     Score     S(PLP)   S(hbond)     S(cho)   S(metal)  DE(clash)   DE(tors)     intcor
     34.13     -22.15       3.99       0.00       0.00       0.00       0.00       0.00

> <Gold.PLP.Fitness>
34.1302

> <Gold.PLP.PLP>
-22.1542

> <Gold.PLP.part.hbond>
-3.0000

> <Gold.PLP.part.metal>
0.0000

> <Gold.PLP.part.buried>
-2.2291

> <Gold.PLP.part.nonpolar>
-18.2357

> <Gold.PLP.part.repulsive>
0.1173

> <Gold.PLP.ligand.clash>
0.0000

> <Gold.PLP.ligand.torsion>
0.0000

> <Gold.PLP.Chemscore.Hbond>
3.9920

> <Gold.PLP.Chemscore.CHOScore>
0.0000

> <Gold.PLP.Chemscore.Metal>
0.0000

> <Gold.Chemscore.Hbonds>
donor molecule, donor type, donor heavy atom, donor atom, acceptor molecule, acceptor atom, score
      L1  H     7    21       P1  1227  2.00
      P1  H  2305  2313       L1     1  1.00
      P1  H  3712  3721       L1     3  0.99

> <Gold.PLP.Chemscore.Internal.Correction>
0.0000

