#       Name:                EN300-109827_i001
#       Creating user name   fsindt
#       Creation time:       Tue Feb 28 15:21:46 2023


#       File generated by GOLD software.
#

@<TRIPOS>MOLECULE
EN300-109827_i001|amine_7|mol2|6382|dock3
    21    22     1
SMALL
USER_CHARGES


@<TRIPOS>ATOM
      1 O1           0.2098 -10.7996   7.5405 O.2            1 <1>                0.0000
      2 C2           0.0562 -11.6126   8.4304 C.2            1 <1>                0.0000
      3 O3          -0.1216 -11.2729   9.7154 O.3            1 <1>                0.0000
      4 C4          -0.3963 -12.4713  10.5012 C.3            1 <1>                0.0000
      5 C5          -0.4230 -13.5989   9.4583 C.3            1 <1>                0.0000
      6 C6           0.6065 -14.6811   9.7965 C.3            1 <1>                0.0000
      7 N7           0.7923 -15.5395   8.6173 N.4            1 <1>                1.0000
      8 C8           1.4081 -14.7941   7.5146 C.3            1 <1>                0.0000
      9 C9           0.4562 -13.6869   7.0347 C.3            1 <1>                0.0000
     10 N10          0.0424 -12.9283   8.2243 N.am           1 <1>                0.0000
     11 H11          0.3973 -12.6420  11.2285 H              1 <1>                0.0000
     12 H12         -1.3620 -12.3886  10.9998 H              1 <1>                0.0000
     13 H13         -1.4227 -14.0194   9.3485 H              1 <1>                0.0000
     14 H14          1.5548 -14.2136  10.0617 H              1 <1>                0.0000
     15 H15          0.2456 -15.2809  10.6321 H              1 <1>                0.0000
     16 H16          2.3410 -14.3461   7.8568 H              1 <1>                0.0000
     17 H17          1.6166 -15.4749   6.6893 H              1 <1>                0.0000
     18 H18          0.9720 -13.0305   6.3339 H              1 <1>                0.0000
     19 H19         -0.4183 -14.1291   6.5573 H              1 <1>                0.0000
     20 H20          1.3864 -16.3169   8.8638 H              1 <1>                0.0000
     21 H21         -0.1051 -15.8911   8.3189 H              1 <1>                0.0000
@<TRIPOS>BOND
    1    1    2 2     
    2    2    3 1     
    3    2   10 am    
    4    3    4 1     
    5    4    5 1     
    6    4   11 1     
    7    4   12 1     
    8    5    6 1     
    9    5   10 1     
   10    5   13 1     
   11    6    7 1     
   12    6   14 1     
   13    6   15 1     
   14    7    8 1     
   15    7   20 1     
   16    7   21 1     
   17    8    9 1     
   18    8   16 1     
   19    8   17 1     
   20    9   10 1     
   21    9   18 1     
   22    9   19 1     
@<TRIPOS>SUBSTRUCTURE
      1 ****           1
@<TRIPOS>SET
DONOR_HYDROGENS      STATIC     ATOMS    <user>   **** ""
2 20 21
ATOM$RED        STATIC     ATOMS    COLORGROUP SYSTEM
2 20 21
@<TRIPOS>COMMENT
> <Gold.Version>
2022.2.0

> <Gold.Id.Protein>
3pbl|protein|mol2

> <Gold.Protein.RotatedTorsions>
[ 1303 1298 1297 1294 ] final   10.16 input  179.99 | X-H torsion
[ 2461 2456 2455 2452 ] final -129.00 input   30.03 | X-H torsion
[ 2515 2510 2509 2506 ] final   43.84 input  -89.99 | X-H torsion
[ 3721 3712 3711 3710 ] final  -24.22 input -179.91 | X-H torsion
[ 3841 3832 3831 3830 ] final    3.15 input -179.91 | X-H torsion
[ 3767 3762 3761 3758 ] final -124.94 input  -89.99 | X-H torsion
[ 2472 2467 2466 2463 ] final   69.14 input  -89.97 | X-H torsion

> <Gold.Protein.ActiveResidues>
 VAL82   VAL86   LEU89   PHE106  VAL107  ASP110  VAL111  MET112  CYS114  THR115 
 CYS181  SER182  ILE183  PHE188  VAL189  ILE190  SER192  SER193  SER196  TRP342 
 PHE345  PHE346  HIS349  VAL350  TYR365  THR369  GLY372  TYR373 

> <Gold.Protein.RotatedAtoms>
    3.4496   -9.9965    4.1395 H   0  0  0  0  0  0  0  0  0  0  0  0  # atno 1303 bound_to 1298
    0.6814   -9.2265    8.1422 H   0  0  0  0  0  0  0  0  0  0  0  0  # atno 2461 bound_to 2456
   -4.7907   -4.8421    7.6760 H   0  0  0  0  0  0  0  0  0  0  0  0  # atno 2472 bound_to 2467
    2.2415   -7.4103    5.2059 H   0  0  0  0  0  0  0  0  0  0  0  0  # atno 2515 bound_to 2510
   -2.5731  -17.7607   14.5360 H   0  0  0  0  0  0  0  0  0  0  0  0  # atno 3721 bound_to 3712
   -4.7801  -21.9943   11.5544 H   0  0  0  0  0  0  0  0  0  0  0  0  # atno 3767 bound_to 3762
    1.7648  -20.5223    9.5729 H   0  0  0  0  0  0  0  0  0  0  0  0  # atno 3841 bound_to 3832
    4.0934   -8.5018    4.0063 LP  0  0  0  0  0  0  0  0  0  0  0  0  # atno 4297 bound_to 1298
    4.8195   -9.6228    4.9458 LP  0  0  0  0  0  0  0  0  0  0  0  0  # atno 4298 bound_to 1298
    2.1522   -8.5381    7.9678 LP  0  0  0  0  0  0  0  0  0  0  0  0  # atno 4299 bound_to 2456
    0.9040   -8.0437    7.0382 LP  0  0  0  0  0  0  0  0  0  0  0  0  # atno 4300 bound_to 2456
    2.8357   -8.7467    4.4800 LP  0  0  0  0  0  0  0  0  0  0  0  0  # atno 4301 bound_to 2510
    2.2196   -8.8426    5.9893 LP  0  0  0  0  0  0  0  0  0  0  0  0  # atno 4302 bound_to 2510
   -3.5435  -16.5635   14.0856 LP  0  0  0  0  0  0  0  0  0  0  0  0  # atno 4306 bound_to 3712
   -3.0135  -17.6577   12.9954 LP  0  0  0  0  0  0  0  0  0  0  0  0  # atno 4307 bound_to 3712
    2.0975  -19.6456    8.2703 LP  0  0  0  0  0  0  0  0  0  0  0  0  # atno 4314 bound_to 3832
    3.0932  -20.8534    8.7352 LP  0  0  0  0  0  0  0  0  0  0  0  0  # atno 4315 bound_to 3832
   -3.9817  -23.2244   10.8359 LP  0  0  0  0  0  0  0  0  0  0  0  0  # atno 4318 bound_to 3762
   -5.3655  -22.6562   10.1811 LP  0  0  0  0  0  0  0  0  0  0  0  0  # atno 4319 bound_to 3762
   -3.6733   -5.1343    8.8303 LP  0  0  0  0  0  0  0  0  0  0  0  0  # atno 4320 bound_to 2467
   -5.2529   -5.4171    9.1327 LP  0  0  0  0  0  0  0  0  0  0  0  0  # atno 4321 bound_to 2467

> <Gold.Score>
     Score     S(PLP)   S(hbond)     S(cho)   S(metal)  DE(clash)   DE(tors)     intcor
     36.82     -28.04       2.93       0.00       0.00       0.00       0.00       0.00

> <Gold.PLP.Fitness>
36.8200

> <Gold.PLP.PLP>
-28.0360

> <Gold.PLP.part.hbond>
-2.0000

> <Gold.PLP.part.metal>
0.0000

> <Gold.PLP.part.buried>
-3.1724

> <Gold.PLP.part.nonpolar>
-23.1283

> <Gold.PLP.part.repulsive>
0.0300

> <Gold.PLP.ligand.clash>
0.0000

> <Gold.PLP.ligand.torsion>
0.0000

> <Gold.PLP.Chemscore.Hbond>
2.9280

> <Gold.PLP.Chemscore.CHOScore>
0.0000

> <Gold.PLP.Chemscore.Metal>
0.0000

> <Gold.Chemscore.Hbonds>
donor molecule, donor type, donor heavy atom, donor atom, acceptor molecule, acceptor atom, score
      L1  H     7    20       P1  1227  2.00
      P1  H  2456  2461       L1     1  0.93

> <Gold.PLP.Chemscore.Internal.Correction>
0.0000

