#       Name:                EN300-109827_i001
#       Creating user name   fsindt
#       Creation time:       Tue Feb 28 15:21:49 2023


#       File generated by GOLD software.
#

@<TRIPOS>MOLECULE
EN300-109827_i001|amine_7|mol2|6382|dock20
    21    22     1
SMALL
USER_CHARGES


@<TRIPOS>ATOM
      1 O1          -0.9917 -13.4966  11.6438 O.2            1 <1>                0.0000
      2 C2          -0.7826 -12.7950  10.6740 C.2            1 <1>                0.0000
      3 O3          -1.5372 -11.7325  10.3575 O.3            1 <1>                0.0000
      4 C4          -0.9484 -11.0416   9.2151 C.3            1 <1>                0.0000
      5 C5           0.3389 -11.8299   8.9297 C.3            1 <1>                0.0000
      6 C6           0.3479 -12.3607   7.4931 C.3            1 <1>                0.0000
      7 N7           1.4007 -13.3803   7.3743 N.4            1 <1>                1.0000
      8 C8           1.0866 -14.5594   8.1878 C.3            1 <1>                0.0000
      9 C9           1.0862 -14.1828   9.6780 C.3            1 <1>                0.0000
     10 N10          0.2217 -13.0025   9.8244 N.am           1 <1>                0.0000
     11 H11         -1.6193 -11.0813   8.3569 H              1 <1>                0.0000
     12 H12         -0.7151 -10.0083   9.4718 H              1 <1>                0.0000
     13 H13          1.2277 -11.2356   9.1413 H              1 <1>                0.0000
     14 H14         -0.6199 -12.8055   7.2615 H              1 <1>                0.0000
     15 H15          0.5517 -11.5425   6.8023 H              1 <1>                0.0000
     16 H16          0.1033 -14.9393   7.9103 H              1 <1>                0.0000
     17 H17          1.8349 -15.3317   8.0099 H              1 <1>                0.0000
     18 H18          0.6936 -15.0090  10.2706 H              1 <1>                0.0000
     19 H19          2.0986 -13.9401  10.0007 H              1 <1>                0.0000
     20 H20          1.4854 -13.6578   6.4080 H              1 <1>                0.0000
     21 H21          2.2775 -12.9885   7.6837 H              1 <1>                0.0000
@<TRIPOS>BOND
    1    1    2 2     
    2    2    3 1     
    3    2   10 am    
    4    3    4 1     
    5    4    5 1     
    6    4   11 1     
    7    4   12 1     
    8    5    6 1     
    9    5   10 1     
   10    5   13 1     
   11    6    7 1     
   12    6   14 1     
   13    6   15 1     
   14    7    8 1     
   15    7   20 1     
   16    7   21 1     
   17    8    9 1     
   18    8   16 1     
   19    8   17 1     
   20    9   10 1     
   21    9   18 1     
   22    9   19 1     
@<TRIPOS>SUBSTRUCTURE
      1 ****           1
@<TRIPOS>SET
DONOR_HYDROGENS      STATIC     ATOMS    <user>   **** ""
2 20 21
ATOM$RED        STATIC     ATOMS    COLORGROUP SYSTEM
2 20 21
@<TRIPOS>COMMENT
> <Gold.Version>
2022.2.0

> <Gold.Id.Protein>
3pbl|protein|mol2

> <Gold.Protein.RotatedTorsions>
[ 1303 1298 1297 1294 ] final  153.14 input  179.99 | X-H torsion
[ 2461 2456 2455 2452 ] final  114.49 input   30.03 | X-H torsion
[ 2515 2510 2509 2506 ] final   96.67 input  -89.99 | X-H torsion
[ 3721 3712 3711 3710 ] final    2.57 input -179.91 | X-H torsion
[ 3841 3832 3831 3830 ] final -160.58 input -179.91 | X-H torsion
[ 3767 3762 3761 3758 ] final    0.23 input  -89.99 | X-H torsion
[ 2472 2467 2466 2463 ] final  -95.63 input  -89.97 | X-H torsion

> <Gold.Protein.ActiveResidues>
 VAL82   VAL86   LEU89   PHE106  VAL107  ASP110  VAL111  MET112  CYS114  THR115 
 CYS181  SER182  ILE183  PHE188  VAL189  ILE190  SER192  SER193  SER196  TRP342 
 PHE345  PHE346  HIS349  VAL350  TYR365  THR369  GLY372  TYR373 

> <Gold.Protein.RotatedAtoms>
    4.9086   -9.2661    4.8700 H   0  0  0  0  0  0  0  0  0  0  0  0  # atno 1303 bound_to 1298
    2.1429   -8.5798    8.0063 H   0  0  0  0  0  0  0  0  0  0  0  0  # atno 2461 bound_to 2456
   -4.1219   -5.3682    9.3400 H   0  0  0  0  0  0  0  0  0  0  0  0  # atno 2472 bound_to 2467
    2.0337   -7.8197    5.9077 H   0  0  0  0  0  0  0  0  0  0  0  0  # atno 2515 bound_to 2510
   -2.4819  -17.9709   14.2065 H   0  0  0  0  0  0  0  0  0  0  0  0  # atno 3721 bound_to 3712
   -5.3210  -22.7196   10.1458 H   0  0  0  0  0  0  0  0  0  0  0  0  # atno 3767 bound_to 3762
    2.7585  -19.8453    8.3515 H   0  0  0  0  0  0  0  0  0  0  0  0  # atno 3841 bound_to 3832
    3.6665  -10.2000    4.3686 LP  0  0  0  0  0  0  0  0  0  0  0  0  # atno 4297 bound_to 1298
    3.7868   -8.6553    3.8528 LP  0  0  0  0  0  0  0  0  0  0  0  0  # atno 4298 bound_to 1298
    0.9563   -8.0205    7.0334 LP  0  0  0  0  0  0  0  0  0  0  0  0  # atno 4299 bound_to 2456
    0.6388   -9.2078    8.1086 LP  0  0  0  0  0  0  0  0  0  0  0  0  # atno 4300 bound_to 2456
    2.6859   -7.9238    4.4145 LP  0  0  0  0  0  0  0  0  0  0  0  0  # atno 4301 bound_to 2510
    2.5773   -9.2559    5.3528 LP  0  0  0  0  0  0  0  0  0  0  0  0  # atno 4302 bound_to 2510
   -3.4269  -16.7042   14.4898 LP  0  0  0  0  0  0  0  0  0  0  0  0  # atno 4306 bound_to 3712
   -3.2353  -17.2743   12.9716 LP  0  0  0  0  0  0  0  0  0  0  0  0  # atno 4307 bound_to 3712
    2.6533  -21.1531    9.2759 LP  0  0  0  0  0  0  0  0  0  0  0  0  # atno 4314 bound_to 3832
    1.3896  -20.1278    9.1404 LP  0  0  0  0  0  0  0  0  0  0  0  0  # atno 4315 bound_to 3832
   -4.8523  -21.9679   11.5177 LP  0  0  0  0  0  0  0  0  0  0  0  0  # atno 4318 bound_to 3762
   -3.9543  -23.1876   10.9073 LP  0  0  0  0  0  0  0  0  0  0  0  0  # atno 4319 bound_to 3762
   -5.5098   -5.2150    8.4935 LP  0  0  0  0  0  0  0  0  0  0  0  0  # atno 4320 bound_to 2467
   -4.0851   -4.8104    7.8057 LP  0  0  0  0  0  0  0  0  0  0  0  0  # atno 4321 bound_to 2467

> <Gold.Score>
     Score     S(PLP)   S(hbond)     S(cho)   S(metal)  DE(clash)   DE(tors)     intcor
     28.36     -28.36       0.00       0.00       0.00       0.00       0.00       0.00

> <Gold.PLP.Fitness>
28.3612

> <Gold.PLP.PLP>
-28.3612

> <Gold.PLP.part.hbond>
0.0000

> <Gold.PLP.part.metal>
0.0000

> <Gold.PLP.part.buried>
-4.4607

> <Gold.PLP.part.nonpolar>
-24.4030

> <Gold.PLP.part.repulsive>
0.1179

> <Gold.PLP.ligand.clash>
0.0000

> <Gold.PLP.ligand.torsion>
0.0000

> <Gold.PLP.Chemscore.Hbond>
0.0000

> <Gold.PLP.Chemscore.CHOScore>
0.0000

> <Gold.PLP.Chemscore.Metal>
0.0000

> <Gold.PLP.Chemscore.Internal.Correction>
0.0000

