#       Name:                EN300-109827_i001
#       Creating user name   fsindt
#       Creation time:       Tue Feb 28 15:21:46 2023


#       File generated by GOLD software.
#

@<TRIPOS>MOLECULE
EN300-109827_i001|amine_7|mol2|6382|dock2
    21    22     1
SMALL
USER_CHARGES


@<TRIPOS>ATOM
      1 O1          -0.9579 -18.8444  14.5430 O.2            1 <1>                0.0000
      2 C2           0.1226 -18.3213  14.3545 C.2            1 <1>                0.0000
      3 O3           1.0984 -18.2952  15.2740 O.3            1 <1>                0.0000
      4 C4           2.2989 -17.7046  14.6917 C.3            1 <1>                0.0000
      5 C5           1.9070 -17.4353  13.2310 C.3            1 <1>                0.0000
      6 C6           2.0755 -15.9531  12.8839 C.3            1 <1>                0.0000
      7 N7           1.3723 -15.6821  11.6214 N.4            1 <1>                1.0000
      8 C8          -0.0762 -15.8488  11.7787 C.3            1 <1>                0.0000
      9 C9          -0.4038 -17.3178  12.0904 C.3            1 <1>                0.0000
     10 N10          0.4558 -17.7226  13.2126 N.am           1 <1>                0.0000
     11 H11          2.5508 -16.7727  15.1980 H              1 <1>                0.0000
     12 H12          3.1324 -18.4052  14.7411 H              1 <1>                0.0000
     13 H13          2.4633 -18.0720  12.5431 H              1 <1>                0.0000
     14 H14          1.6494 -15.3407  13.6787 H              1 <1>                0.0000
     15 H15          3.1347 -15.7225  12.7694 H              1 <1>                0.0000
     16 H16         -0.4266 -15.2186  12.5960 H              1 <1>                0.0000
     17 H17         -0.5767 -15.5543  10.8563 H              1 <1>                0.0000
     18 H18         -1.4528 -17.4140  12.3699 H              1 <1>                0.0000
     19 H19         -0.1909 -17.9392  11.2205 H              1 <1>                0.0000
     20 H20          1.5670 -14.7359  11.3304 H              1 <1>                0.0000
     21 H21          1.7042 -16.3203  10.9139 H              1 <1>                0.0000
@<TRIPOS>BOND
    1    1    2 2     
    2    2    3 1     
    3    2   10 am    
    4    3    4 1     
    5    4    5 1     
    6    4   11 1     
    7    4   12 1     
    8    5    6 1     
    9    5   10 1     
   10    5   13 1     
   11    6    7 1     
   12    6   14 1     
   13    6   15 1     
   14    7    8 1     
   15    7   20 1     
   16    7   21 1     
   17    8    9 1     
   18    8   16 1     
   19    8   17 1     
   20    9   10 1     
   21    9   18 1     
   22    9   19 1     
@<TRIPOS>SUBSTRUCTURE
      1 ****           1
@<TRIPOS>SET
DONOR_HYDROGENS      STATIC     ATOMS    <user>   **** ""
2 20 21
ATOM$RED        STATIC     ATOMS    COLORGROUP SYSTEM
2 20 21
@<TRIPOS>COMMENT
> <Gold.Version>
2022.2.0

> <Gold.Id.Protein>
3pbl|protein|mol2

> <Gold.Protein.RotatedTorsions>
[ 1303 1298 1297 1294 ] final  140.37 input  179.99 | X-H torsion
[ 2461 2456 2455 2452 ] final -118.60 input   30.03 | X-H torsion
[ 2515 2510 2509 2506 ] final   86.44 input  -89.99 | X-H torsion
[ 3721 3712 3711 3710 ] final    3.04 input -179.91 | X-H torsion
[ 3841 3832 3831 3830 ] final   31.23 input -179.91 | X-H torsion
[ 3767 3762 3761 3758 ] final   26.90 input  -89.99 | X-H torsion
[ 2472 2467 2466 2463 ] final  -20.47 input  -89.97 | X-H torsion

> <Gold.Protein.ActiveResidues>
 VAL82   VAL86   LEU89   PHE106  VAL107  ASP110  VAL111  MET112  CYS114  THR115 
 CYS181  SER182  ILE183  PHE188  VAL189  ILE190  SER192  SER193  SER196  TRP342 
 PHE345  PHE346  HIS349  VAL350  TYR365  THR369  GLY372  TYR373 

> <Gold.Protein.RotatedAtoms>
    4.8738   -9.4658    4.9233 H   0  0  0  0  0  0  0  0  0  0  0  0  # atno 1303 bound_to 1298
    0.5605   -9.1647    8.0382 H   0  0  0  0  0  0  0  0  0  0  0  0  # atno 2461 bound_to 2456
   -3.6618   -4.9664    8.3657 H   0  0  0  0  0  0  0  0  0  0  0  0  # atno 2472 bound_to 2467
    2.0512   -7.6913    5.8006 H   0  0  0  0  0  0  0  0  0  0  0  0  # atno 2515 bound_to 2510
   -2.4811  -17.9734   14.2000 H   0  0  0  0  0  0  0  0  0  0  0  0  # atno 3721 bound_to 3712
   -5.0233  -23.0255   10.0632 H   0  0  0  0  0  0  0  0  0  0  0  0  # atno 3767 bound_to 3762
    2.0819  -20.7938    9.6197 H   0  0  0  0  0  0  0  0  0  0  0  0  # atno 3841 bound_to 3832
    3.5346  -10.1016    4.2388 LP  0  0  0  0  0  0  0  0  0  0  0  0  # atno 4297 bound_to 1298
    3.9535   -8.5539    3.9293 LP  0  0  0  0  0  0  0  0  0  0  0  0  # atno 4298 bound_to 1298
    2.1141   -8.6625    8.0788 LP  0  0  0  0  0  0  0  0  0  0  0  0  # atno 4299 bound_to 2456
    1.0629   -7.9811    7.0312 LP  0  0  0  0  0  0  0  0  0  0  0  0  # atno 4300 bound_to 2456
    2.7377   -8.0776    4.3704 LP  0  0  0  0  0  0  0  0  0  0  0  0  # atno 4301 bound_to 2510
    2.5080   -9.2305    5.5040 LP  0  0  0  0  0  0  0  0  0  0  0  0  # atno 4302 bound_to 2510
   -3.4242  -16.7081   14.4959 LP  0  0  0  0  0  0  0  0  0  0  0  0  # atno 4306 bound_to 3712
   -3.2390  -17.2677   12.9730 LP  0  0  0  0  0  0  0  0  0  0  0  0  # atno 4307 bound_to 3712
    1.7143  -19.6726    8.5317 LP  0  0  0  0  0  0  0  0  0  0  0  0  # atno 4314 bound_to 3832
    3.1101  -20.5128    8.4197 LP  0  0  0  0  0  0  0  0  0  0  0  0  # atno 4315 bound_to 3832
   -5.1912  -21.9167   11.2503 LP  0  0  0  0  0  0  0  0  0  0  0  0  # atno 4318 bound_to 3762
   -3.9130  -22.9330   11.2572 LP  0  0  0  0  0  0  0  0  0  0  0  0  # atno 4319 bound_to 3762
   -4.8329   -5.4634    9.3893 LP  0  0  0  0  0  0  0  0  0  0  0  0  # atno 4320 bound_to 2467
   -5.2221   -4.9637    7.8841 LP  0  0  0  0  0  0  0  0  0  0  0  0  # atno 4321 bound_to 2467

> <Gold.Score>
     Score     S(PLP)   S(hbond)     S(cho)   S(metal)  DE(clash)   DE(tors)     intcor
     33.03     -24.03       3.00       0.00       0.00       0.00       0.00       0.00

> <Gold.PLP.Fitness>
33.0285

> <Gold.PLP.PLP>
-24.0285

> <Gold.PLP.part.hbond>
-2.0000

> <Gold.PLP.part.metal>
0.0000

> <Gold.PLP.part.buried>
-3.6875

> <Gold.PLP.part.nonpolar>
-18.8140

> <Gold.PLP.part.repulsive>
0.0902

> <Gold.PLP.ligand.clash>
0.0000

> <Gold.PLP.ligand.torsion>
0.0000

> <Gold.PLP.Chemscore.Hbond>
3.0000

> <Gold.PLP.Chemscore.CHOScore>
0.0000

> <Gold.PLP.Chemscore.Metal>
0.0000

> <Gold.Chemscore.Hbonds>
donor molecule, donor type, donor heavy atom, donor atom, acceptor molecule, acceptor atom, score
      L1  H     7    21       P1  1227  2.00
      P1  H  3712  3721       L1     1  1.00

> <Gold.PLP.Chemscore.Internal.Correction>
0.0000

