#       Name:                EN300-109827_i001
#       Creating user name   fsindt
#       Creation time:       Tue Feb 28 15:21:47 2023


#       File generated by GOLD software.
#

@<TRIPOS>MOLECULE
EN300-109827_i001|amine_7|mol2|6382|dock8
    21    22     1
SMALL
USER_CHARGES


@<TRIPOS>ATOM
      1 O1           0.8970 -11.8792   8.7068 O.2            1 <1>                0.0000
      2 C2           0.6071 -12.9455   8.2013 C.2            1 <1>                0.0000
      3 O3           0.0371 -13.0565   6.9925 O.3            1 <1>                0.0000
      4 C4          -0.0660 -14.4666   6.6318 C.3            1 <1>                0.0000
      5 C5           0.6043 -15.1981   7.8046 C.3            1 <1>                0.0000
      6 C6          -0.3598 -16.1996   8.4473 C.3            1 <1>                0.0000
      7 N7           0.1855 -16.6090   9.7499 N.4            1 <1>                1.0000
      8 C8           0.2078 -15.4829  10.6893 C.3            1 <1>                0.0000
      9 C9           1.1814 -14.4035  10.1901 C.3            1 <1>                0.0000
     10 N10          0.8292 -14.1186   8.7912 N.am           1 <1>                0.0000
     11 H11         -1.1111 -14.7633   6.5432 H              1 <1>                0.0000
     12 H12          0.4686 -14.6637   5.7025 H              1 <1>                0.0000
     13 H13          1.5336 -15.6786   7.4985 H              1 <1>                0.0000
     14 H14         -1.3334 -15.7305   8.5894 H              1 <1>                0.0000
     15 H15         -0.4627 -17.0730   7.8032 H              1 <1>                0.0000
     16 H16         -0.7929 -15.0586  10.7696 H              1 <1>                0.0000
     17 H17          0.5297 -15.8354  11.6692 H              1 <1>                0.0000
     18 H18          1.0774 -13.5011  10.7925 H              1 <1>                0.0000
     19 H19          2.2056 -14.7723  10.2442 H              1 <1>                0.0000
     20 H20         -0.3869 -17.3471  10.1314 H              1 <1>                0.0000
     21 H21          1.1256 -16.9524   9.6223 H              1 <1>                0.0000
@<TRIPOS>BOND
    1    1    2 2     
    2    2    3 1     
    3    2   10 am    
    4    3    4 1     
    5    4    5 1     
    6    4   11 1     
    7    4   12 1     
    8    5    6 1     
    9    5   10 1     
   10    5   13 1     
   11    6    7 1     
   12    6   14 1     
   13    6   15 1     
   14    7    8 1     
   15    7   20 1     
   16    7   21 1     
   17    8    9 1     
   18    8   16 1     
   19    8   17 1     
   20    9   10 1     
   21    9   18 1     
   22    9   19 1     
@<TRIPOS>SUBSTRUCTURE
      1 ****           1
@<TRIPOS>SET
DONOR_HYDROGENS      STATIC     ATOMS    <user>   **** ""
2 20 21
ATOM$RED        STATIC     ATOMS    COLORGROUP SYSTEM
2 20 21
@<TRIPOS>COMMENT
> <Gold.Version>
2022.2.0

> <Gold.Id.Protein>
3pbl|protein|mol2

> <Gold.Protein.RotatedTorsions>
[ 1303 1298 1297 1294 ] final  -32.04 input  179.99 | X-H torsion
[ 2461 2456 2455 2452 ] final -162.71 input   30.03 | X-H torsion
[ 2515 2510 2509 2506 ] final   37.71 input  -89.99 | X-H torsion
[ 3721 3712 3711 3710 ] final  112.25 input -179.91 | X-H torsion
[ 3841 3832 3831 3830 ] final  -35.29 input -179.91 | X-H torsion
[ 3767 3762 3761 3758 ] final  116.79 input  -89.99 | X-H torsion
[ 2472 2467 2466 2463 ] final    7.12 input  -89.97 | X-H torsion

> <Gold.Protein.ActiveResidues>
 VAL82   VAL86   LEU89   PHE106  VAL107  ASP110  VAL111  MET112  CYS114  THR115 
 CYS181  SER182  ILE183  PHE188  VAL189  ILE190  SER192  SER193  SER196  TRP342 
 PHE345  PHE346  HIS349  VAL350  TYR365  THR369  GLY372  TYR373 

> <Gold.Protein.RotatedAtoms>
    3.3420   -9.4004    3.8334 H   0  0  0  0  0  0  0  0  0  0  0  0  # atno 1303 bound_to 1298
    1.1764   -9.2801    8.3685 H   0  0  0  0  0  0  0  0  0  0  0  0  # atno 2461 bound_to 2456
   -3.8694   -4.8516    7.9837 H   0  0  0  0  0  0  0  0  0  0  0  0  # atno 2472 bound_to 2467
    2.2805   -7.4097    5.1130 H   0  0  0  0  0  0  0  0  0  0  0  0  # atno 2515 bound_to 2510
   -2.9509  -17.3349   13.0312 H   0  0  0  0  0  0  0  0  0  0  0  0  # atno 3721 bound_to 3712
   -3.9714  -23.2123   10.8593 H   0  0  0  0  0  0  0  0  0  0  0  0  # atno 3767 bound_to 3762
    1.5629  -20.0693    9.2924 H   0  0  0  0  0  0  0  0  0  0  0  0  # atno 3841 bound_to 3832
    4.6317   -8.5829    4.4118 LP  0  0  0  0  0  0  0  0  0  0  0  0  # atno 4297 bound_to 1298
    4.3888  -10.1381    4.8465 LP  0  0  0  0  0  0  0  0  0  0  0  0  # atno 4298 bound_to 1298
    2.0711   -8.1700    7.5718 LP  0  0  0  0  0  0  0  0  0  0  0  0  # atno 4299 bound_to 2456
    0.4903   -8.3582    7.2080 LP  0  0  0  0  0  0  0  0  0  0  0  0  # atno 4300 bound_to 2456
    2.8320   -8.8326    4.5326 LP  0  0  0  0  0  0  0  0  0  0  0  0  # atno 4301 bound_to 2510
    2.1842   -8.7573    6.0297 LP  0  0  0  0  0  0  0  0  0  0  0  0  # atno 4302 bound_to 2510
   -2.6532  -18.0638   14.4305 LP  0  0  0  0  0  0  0  0  0  0  0  0  # atno 4306 bound_to 3712
   -3.4676  -16.6490   14.3878 LP  0  0  0  0  0  0  0  0  0  0  0  0  # atno 4307 bound_to 3712
    2.6634  -19.8892    8.1380 LP  0  0  0  0  0  0  0  0  0  0  0  0  # atno 4314 bound_to 3832
    2.7605  -21.1331    9.1916 LP  0  0  0  0  0  0  0  0  0  0  0  0  # atno 4315 bound_to 3832
   -5.3513  -22.6776   10.1688 LP  0  0  0  0  0  0  0  0  0  0  0  0  # atno 4318 bound_to 3762
   -4.8045  -21.9853   11.5430 LP  0  0  0  0  0  0  0  0  0  0  0  0  # atno 4319 bound_to 3762
   -4.3861   -5.4261    9.4222 LP  0  0  0  0  0  0  0  0  0  0  0  0  # atno 4320 bound_to 2467
   -5.4613   -5.1158    8.2331 LP  0  0  0  0  0  0  0  0  0  0  0  0  # atno 4321 bound_to 2467

> <Gold.Score>
     Score     S(PLP)   S(hbond)     S(cho)   S(metal)  DE(clash)   DE(tors)     intcor
     34.27     -28.27       2.00       0.00       0.00       0.00       0.00       0.00

> <Gold.PLP.Fitness>
34.2695

> <Gold.PLP.PLP>
-28.2695

> <Gold.PLP.part.hbond>
-1.0000

> <Gold.PLP.part.metal>
0.0000

> <Gold.PLP.part.buried>
-2.2622

> <Gold.PLP.part.nonpolar>
-24.6650

> <Gold.PLP.part.repulsive>
0.0000

> <Gold.PLP.ligand.clash>
0.0000

> <Gold.PLP.ligand.torsion>
0.0000

> <Gold.PLP.Chemscore.Hbond>
2.0000

> <Gold.PLP.Chemscore.CHOScore>
0.0000

> <Gold.PLP.Chemscore.Metal>
0.0000

> <Gold.Chemscore.Hbonds>
donor molecule, donor type, donor heavy atom, donor atom, acceptor molecule, acceptor atom, score
      L1  H     7    21       P1  1227  2.00

> <Gold.PLP.Chemscore.Internal.Correction>
0.0000

