#       Name:                EN300-109827_i001
#       Creating user name   fsindt
#       Creation time:       Tue Feb 28 15:21:47 2023


#       File generated by GOLD software.
#

@<TRIPOS>MOLECULE
EN300-109827_i001|amine_7|mol2|6382|dock10
    21    22     1
SMALL
USER_CHARGES


@<TRIPOS>ATOM
      1 O1           1.9987 -18.2055  15.0987 O.2            1 <1>                0.0000
      2 C2           1.4476 -17.4716  14.3022 C.2            1 <1>                0.0000
      3 O3           0.9439 -16.2733  14.6318 O.3            1 <1>                0.0000
      4 C4           0.4647 -15.6004  13.4290 C.3            1 <1>                0.0000
      5 C5           0.8261 -16.5705  12.2940 C.3            1 <1>                0.0000
      6 C6          -0.4208 -16.9735  11.5012 C.3            1 <1>                0.0000
      7 N7          -0.0948 -18.1444  10.6738 N.4            1 <1>                1.0000
      8 C8           0.1911 -19.3161  11.5082 C.3            1 <1>                0.0000
      9 C9           1.4606 -19.0705  12.3391 C.3            1 <1>                0.0000
     10 N10          1.2896 -17.7762  13.0155 N.am           1 <1>                0.0000
     11 H11         -0.6143 -15.4533  13.4772 H              1 <1>                0.0000
     12 H12          0.9759 -14.6472  13.2946 H              1 <1>                0.0000
     13 H13          1.5963 -16.1564  11.6433 H              1 <1>                0.0000
     14 H14         -1.2267 -17.2256  12.1905 H              1 <1>                0.0000
     15 H15         -0.7295 -16.1475  10.8604 H              1 <1>                0.0000
     16 H16         -0.6499 -19.4980  12.1773 H              1 <1>                0.0000
     17 H17          0.3391 -20.1874  10.8701 H              1 <1>                0.0000
     18 H18          1.5822 -19.8639  13.0764 H              1 <1>                0.0000
     19 H19          2.3317 -19.0320  11.6851 H              1 <1>                0.0000
     20 H20         -0.8760 -18.3508  10.0697 H              1 <1>                0.0000
     21 H21          0.7141 -17.9353  10.1081 H              1 <1>                0.0000
@<TRIPOS>BOND
    1    1    2 2     
    2    2    3 1     
    3    2   10 am    
    4    3    4 1     
    5    4    5 1     
    6    4   11 1     
    7    4   12 1     
    8    5    6 1     
    9    5   10 1     
   10    5   13 1     
   11    6    7 1     
   12    6   14 1     
   13    6   15 1     
   14    7    8 1     
   15    7   20 1     
   16    7   21 1     
   17    8    9 1     
   18    8   16 1     
   19    8   17 1     
   20    9   10 1     
   21    9   18 1     
   22    9   19 1     
@<TRIPOS>SUBSTRUCTURE
      1 ****           1
@<TRIPOS>SET
DONOR_HYDROGENS      STATIC     ATOMS    <user>   **** ""
2 20 21
ATOM$RED        STATIC     ATOMS    COLORGROUP SYSTEM
2 20 21
@<TRIPOS>COMMENT
> <Gold.Version>
2022.2.0

> <Gold.Id.Protein>
3pbl|protein|mol2

> <Gold.Protein.RotatedTorsions>
[ 1303 1298 1297 1294 ] final   17.92 input  179.99 | X-H torsion
[ 2461 2456 2455 2452 ] final -167.46 input   30.03 | X-H torsion
[ 2515 2510 2509 2506 ] final -162.94 input  -89.99 | X-H torsion
[ 3721 3712 3711 3710 ] final  -50.81 input -179.91 | X-H torsion
[ 3841 3832 3831 3830 ] final -169.60 input -179.91 | X-H torsion
[ 3767 3762 3761 3758 ] final   88.77 input  -89.99 | X-H torsion
[ 2472 2467 2466 2463 ] final    3.35 input  -89.97 | X-H torsion

> <Gold.Protein.ActiveResidues>
 VAL82   VAL86   LEU89   PHE106  VAL107  ASP110  VAL111  MET112  CYS114  THR115 
 CYS181  SER182  ILE183  PHE188  VAL189  ILE190  SER192  SER193  SER196  TRP342 
 PHE345  PHE346  HIS349  VAL350  TYR365  THR369  GLY372  TYR373 

> <Gold.Protein.RotatedAtoms>
    3.5122  -10.0781    4.2147 H   0  0  0  0  0  0  0  0  0  0  0  0  # atno 1303 bound_to 1298
    1.2522   -9.2688    8.3837 H   0  0  0  0  0  0  0  0  0  0  0  0  # atno 2461 bound_to 2456
   -3.8300   -4.8640    8.0301 H   0  0  0  0  0  0  0  0  0  0  0  0  # atno 2472 bound_to 2467
    2.4426   -9.1818    5.6347 H   0  0  0  0  0  0  0  0  0  0  0  0  # atno 2515 bound_to 2510
   -2.7340  -17.4502   14.7270 H   0  0  0  0  0  0  0  0  0  0  0  0  # atno 3721 bound_to 3712
   -4.2062  -23.3312   10.4862 H   0  0  0  0  0  0  0  0  0  0  0  0  # atno 3767 bound_to 3762
    2.8584  -19.9357    8.3706 H   0  0  0  0  0  0  0  0  0  0  0  0  # atno 3841 bound_to 3832
    3.9870   -8.5389    3.9467 LP  0  0  0  0  0  0  0  0  0  0  0  0  # atno 4297 bound_to 1298
    4.8632   -9.5041    4.9302 LP  0  0  0  0  0  0  0  0  0  0  0  0  # atno 4298 bound_to 1298
    2.0355   -8.1275    7.5169 LP  0  0  0  0  0  0  0  0  0  0  0  0  # atno 4299 bound_to 2456
    0.4501   -8.4121    7.2478 LP  0  0  0  0  0  0  0  0  0  0  0  0  # atno 4300 bound_to 2456
    2.0776   -7.5912    5.6864 LP  0  0  0  0  0  0  0  0  0  0  0  0  # atno 4301 bound_to 2510
    2.7765   -8.2257    4.3540 LP  0  0  0  0  0  0  0  0  0  0  0  0  # atno 4302 bound_to 2510
   -3.5624  -16.5987   13.6469 LP  0  0  0  0  0  0  0  0  0  0  0  0  # atno 4306 bound_to 3712
   -2.8088  -17.9811   13.2136 LP  0  0  0  0  0  0  0  0  0  0  0  0  # atno 4307 bound_to 3712
    2.5270  -21.1571    9.3577 LP  0  0  0  0  0  0  0  0  0  0  0  0  # atno 4314 bound_to 3832
    1.4005  -20.0194    9.0366 LP  0  0  0  0  0  0  0  0  0  0  0  0  # atno 4315 bound_to 3832
   -5.5019  -22.3386   10.4348 LP  0  0  0  0  0  0  0  0  0  0  0  0  # atno 4318 bound_to 3762
   -4.4191  -22.2055   11.6499 LP  0  0  0  0  0  0  0  0  0  0  0  0  # atno 4319 bound_to 3762
   -4.4470   -5.4355    9.4298 LP  0  0  0  0  0  0  0  0  0  0  0  0  # atno 4320 bound_to 2467
   -5.4398   -5.0940    8.1791 LP  0  0  0  0  0  0  0  0  0  0  0  0  # atno 4321 bound_to 2467

> <Gold.Score>
     Score     S(PLP)   S(hbond)     S(cho)   S(metal)  DE(clash)   DE(tors)     intcor
     31.39     -22.39       3.00       0.00       0.00       0.00       0.00       0.00

> <Gold.PLP.Fitness>
31.3925

> <Gold.PLP.PLP>
-22.3925

> <Gold.PLP.part.hbond>
-2.0000

> <Gold.PLP.part.metal>
0.0000

> <Gold.PLP.part.buried>
-4.4663

> <Gold.PLP.part.nonpolar>
-16.8794

> <Gold.PLP.part.repulsive>
0.1287

> <Gold.PLP.ligand.clash>
0.0000

> <Gold.PLP.ligand.torsion>
0.0000

> <Gold.PLP.Chemscore.Hbond>
3.0000

> <Gold.PLP.Chemscore.CHOScore>
0.0000

> <Gold.PLP.Chemscore.Metal>
0.0000

> <Gold.Chemscore.Hbonds>
donor molecule, donor type, donor heavy atom, donor atom, acceptor molecule, acceptor atom, score
      L1  H     7    21       P1  1227  2.00
      P1  H  2305  2313       L1     3  1.00

> <Gold.PLP.Chemscore.Internal.Correction>
0.0000

