#       Name:                EN300-109827_i001
#       Creating user name   fsindt
#       Creation time:       Tue Feb 28 15:21:48 2023


#       File generated by GOLD software.
#

@<TRIPOS>MOLECULE
EN300-109827_i001|amine_7|mol2|6382|dock12
    21    22     1
SMALL
USER_CHARGES


@<TRIPOS>ATOM
      1 O1           0.4661 -15.2357  10.4518 O.2            1 <1>                0.0000
      2 C2           0.4859 -14.6317   9.3976 C.2            1 <1>                0.0000
      3 O3           1.0861 -15.0983   8.2929 O.3            1 <1>                0.0000
      4 C4           0.8220 -14.1947   7.1780 C.3            1 <1>                0.0000
      5 C5          -0.1038 -13.1266   7.7794 C.3            1 <1>                0.0000
      6 C6           0.5001 -11.7280   7.6219 C.3            1 <1>                0.0000
      7 N7          -0.2263 -10.7995   8.5007 N.4            1 <1>                1.0000
      8 C8          -0.0033 -11.1270   9.9127 C.3            1 <1>                0.0000
      9 C9          -0.6048 -12.5047  10.2324 C.3            1 <1>                0.0000
     10 N10         -0.0912 -13.4440   9.2245 N.am           1 <1>                0.0000
     11 H11          1.7486 -13.7425   6.8245 H              1 <1>                0.0000
     12 H12          0.3201 -14.7236   6.3678 H              1 <1>                0.0000
     13 H13         -1.1057 -13.1790   7.3534 H              1 <1>                0.0000
     14 H14          1.5529 -11.7504   7.9038 H              1 <1>                0.0000
     15 H15          0.4034 -11.4024   6.5861 H              1 <1>                0.0000
     16 H16          1.0675 -11.1436  10.1158 H              1 <1>                0.0000
     17 H17         -0.4773 -10.3710  10.5388 H              1 <1>                0.0000
     18 H18         -0.2988 -12.8224  11.2291 H              1 <1>                0.0000
     19 H19         -1.6922 -12.4589  10.1728 H              1 <1>                0.0000
     20 H20          0.0929  -9.8587   8.3246 H              1 <1>                0.0000
     21 H21         -1.2133 -10.8568   8.2993 H              1 <1>                0.0000
@<TRIPOS>BOND
    1    1    2 2     
    2    2    3 1     
    3    2   10 am    
    4    3    4 1     
    5    4    5 1     
    6    4   11 1     
    7    4   12 1     
    8    5    6 1     
    9    5   10 1     
   10    5   13 1     
   11    6    7 1     
   12    6   14 1     
   13    6   15 1     
   14    7    8 1     
   15    7   20 1     
   16    7   21 1     
   17    8    9 1     
   18    8   16 1     
   19    8   17 1     
   20    9   10 1     
   21    9   18 1     
   22    9   19 1     
@<TRIPOS>SUBSTRUCTURE
      1 ****           1
@<TRIPOS>SET
DONOR_HYDROGENS      STATIC     ATOMS    <user>   **** ""
2 20 21
ATOM$RED        STATIC     ATOMS    COLORGROUP SYSTEM
2 20 21
@<TRIPOS>COMMENT
> <Gold.Version>
2022.2.0

> <Gold.Id.Protein>
3pbl|protein|mol2

> <Gold.Protein.RotatedTorsions>
[ 1303 1298 1297 1294 ] final   69.47 input  179.99 | X-H torsion
[ 2461 2456 2455 2452 ] final   -3.37 input   30.03 | X-H torsion
[ 2515 2510 2509 2506 ] final   71.67 input  -89.99 | X-H torsion
[ 3721 3712 3711 3710 ] final   28.17 input -179.91 | X-H torsion
[ 3841 3832 3831 3830 ] final -149.14 input -179.91 | X-H torsion
[ 3767 3762 3761 3758 ] final  -40.37 input  -89.99 | X-H torsion
[ 2472 2467 2466 2463 ] final -178.11 input  -89.97 | X-H torsion

> <Gold.Protein.ActiveResidues>
 VAL82   VAL86   LEU89   PHE106  VAL107  ASP110  VAL111  MET112  CYS114  THR115 
 CYS181  SER182  ILE183  PHE188  VAL189  ILE190  SER192  SER193  SER196  TRP342 
 PHE345  PHE346  HIS349  VAL350  TYR365  THR369  GLY372  TYR373 

> <Gold.Protein.RotatedAtoms>
    4.1384  -10.2480    4.7158 H   0  0  0  0  0  0  0  0  0  0  0  0  # atno 1303 bound_to 1298
    0.9889   -8.0072    7.0314 H   0  0  0  0  0  0  0  0  0  0  0  0  # atno 2461 bound_to 2456
   -5.3288   -5.3942    9.0438 H   0  0  0  0  0  0  0  0  0  0  0  0  # atno 2472 bound_to 2467
    2.0976   -7.5429    5.6148 H   0  0  0  0  0  0  0  0  0  0  0  0  # atno 2515 bound_to 2510
   -2.4795  -18.0340   13.8280 H   0  0  0  0  0  0  0  0  0  0  0  0  # atno 3721 bound_to 3712
   -5.5111  -22.2384   10.5463 H   0  0  0  0  0  0  0  0  0  0  0  0  # atno 3767 bound_to 3762
    2.6174  -19.7459    8.3499 H   0  0  0  0  0  0  0  0  0  0  0  0  # atno 3841 bound_to 3832
    3.4268   -9.1142    3.7807 LP  0  0  0  0  0  0  0  0  0  0  0  0  # atno 4297 bound_to 1298
    4.7970   -8.7587    4.5949 LP  0  0  0  0  0  0  0  0  0  0  0  0  # atno 4298 bound_to 1298
    0.6136   -9.1953    8.0873 LP  0  0  0  0  0  0  0  0  0  0  0  0  # atno 4299 bound_to 2456
    2.1352   -8.6055    8.0292 LP  0  0  0  0  0  0  0  0  0  0  0  0  # atno 4300 bound_to 2456
    2.7948   -8.3127    4.3550 LP  0  0  0  0  0  0  0  0  0  0  0  0  # atno 4301 bound_to 2510
    2.4045   -9.1440    5.7053 LP  0  0  0  0  0  0  0  0  0  0  0  0  # atno 4302 bound_to 2510
   -3.2469  -16.9763   14.7609 LP  0  0  0  0  0  0  0  0  0  0  0  0  # atno 4306 bound_to 3712
   -3.4182  -16.9294   13.1376 LP  0  0  0  0  0  0  0  0  0  0  0  0  # atno 4307 bound_to 3712
    2.7992  -21.1212    9.1570 LP  0  0  0  0  0  0  0  0  0  0  0  0  # atno 4314 bound_to 3832
    1.4067  -20.2746    9.2613 LP  0  0  0  0  0  0  0  0  0  0  0  0  # atno 4315 bound_to 3832
   -4.3042  -22.3017   11.6446 LP  0  0  0  0  0  0  0  0  0  0  0  0  # atno 4318 bound_to 3762
   -4.3123  -23.3348   10.3800 LP  0  0  0  0  0  0  0  0  0  0  0  0  # atno 4319 bound_to 3762
   -4.6740   -4.8231    7.6612 LP  0  0  0  0  0  0  0  0  0  0  0  0  # atno 4320 bound_to 2467
   -3.7142   -5.1763    8.9342 LP  0  0  0  0  0  0  0  0  0  0  0  0  # atno 4321 bound_to 2467

> <Gold.Score>
     Score     S(PLP)   S(hbond)     S(cho)   S(metal)  DE(clash)   DE(tors)     intcor
     31.34     -28.34       1.00       0.00       0.00       0.00       0.00       0.00

> <Gold.PLP.Fitness>
31.3394

> <Gold.PLP.PLP>
-28.3394

> <Gold.PLP.part.hbond>
-1.0000

> <Gold.PLP.part.metal>
0.0000

> <Gold.PLP.part.buried>
-3.7318

> <Gold.PLP.part.nonpolar>
-24.1584

> <Gold.PLP.part.repulsive>
0.3144

> <Gold.PLP.ligand.clash>
0.0000

> <Gold.PLP.ligand.torsion>
0.0000

> <Gold.PLP.Chemscore.Hbond>
1.0000

> <Gold.PLP.Chemscore.CHOScore>
0.0000

> <Gold.PLP.Chemscore.Metal>
0.0000

> <Gold.Chemscore.Hbonds>
donor molecule, donor type, donor heavy atom, donor atom, acceptor molecule, acceptor atom, score
      L1  H     7    20       P1  2456  1.00

> <Gold.PLP.Chemscore.Internal.Correction>
0.0000

