#       Name:                EN300-109827_i001
#       Creating user name   fsindt
#       Creation time:       Tue Feb 28 15:21:46 2023


#       File generated by GOLD software.
#

@<TRIPOS>MOLECULE
EN300-109827_i001|amine_7|mol2|6382|dock6
    21    22     1
SMALL
USER_CHARGES


@<TRIPOS>ATOM
      1 O1           0.9543 -11.5423   6.0492 O.2            1 <1>                0.0000
      2 C2           0.8407 -11.9283   7.1958 C.2            1 <1>                0.0000
      3 O3           1.0976 -11.1559   8.2616 O.3            1 <1>                0.0000
      4 C4           0.7470 -11.8776   9.4803 C.3            1 <1>                0.0000
      5 C5           0.1653 -13.2046   8.9697 C.3            1 <1>                0.0000
      6 C6           0.9418 -14.3964   9.5374 C.3            1 <1>                0.0000
      7 N7           0.5899 -15.5980   8.7666 N.4            1 <1>                1.0000
      8 C8           1.0614 -15.4926   7.3819 C.3            1 <1>                0.0000
      9 C9           0.3264 -14.3497   6.6638 C.3            1 <1>                0.0000
     10 N10          0.4435 -13.1581   7.5173 N.am           1 <1>                0.0000
     11 H11          1.6345 -12.0574  10.0870 H              1 <1>                0.0000
     12 H12         -0.0012 -11.3260  10.0496 H              1 <1>                0.0000
     13 H13         -0.9004 -13.2837   9.1843 H              1 <1>                0.0000
     14 H14          2.0123 -14.2087   9.4540 H              1 <1>                0.0000
     15 H15          0.6742 -14.5420  10.5841 H              1 <1>                0.0000
     16 H16          2.1328 -15.2925   7.3784 H              1 <1>                0.0000
     17 H17          0.8681 -16.4306   6.8614 H              1 <1>                0.0000
     18 H18          0.7878 -14.1615   5.6944 H              1 <1>                0.0000
     19 H19         -0.7246 -14.6072   6.5331 H              1 <1>                0.0000
     20 H20          1.0130 -16.4050   9.1999 H              1 <1>                0.0000
     21 H21         -0.4128 -15.7102   8.7674 H              1 <1>                0.0000
@<TRIPOS>BOND
    1    1    2 2     
    2    2    3 1     
    3    2   10 am    
    4    3    4 1     
    5    4    5 1     
    6    4   11 1     
    7    4   12 1     
    8    5    6 1     
    9    5   10 1     
   10    5   13 1     
   11    6    7 1     
   12    6   14 1     
   13    6   15 1     
   14    7    8 1     
   15    7   20 1     
   16    7   21 1     
   17    8    9 1     
   18    8   16 1     
   19    8   17 1     
   20    9   10 1     
   21    9   18 1     
   22    9   19 1     
@<TRIPOS>SUBSTRUCTURE
      1 ****           1
@<TRIPOS>SET
DONOR_HYDROGENS      STATIC     ATOMS    <user>   **** ""
2 20 21
ATOM$RED        STATIC     ATOMS    COLORGROUP SYSTEM
2 20 21
@<TRIPOS>COMMENT
> <Gold.Version>
2022.2.0

> <Gold.Id.Protein>
3pbl|protein|mol2

> <Gold.Protein.RotatedTorsions>
[ 1303 1298 1297 1294 ] final   52.24 input  179.99 | X-H torsion
[ 2461 2456 2455 2452 ] final -150.75 input   30.03 | X-H torsion
[ 2515 2510 2509 2506 ] final  177.43 input  -89.99 | X-H torsion
[ 3721 3712 3711 3710 ] final -117.83 input -179.91 | X-H torsion
[ 3841 3832 3831 3830 ] final  126.03 input -179.91 | X-H torsion
[ 3767 3762 3761 3758 ] final   32.96 input  -89.99 | X-H torsion
[ 2472 2467 2466 2463 ] final   26.26 input  -89.97 | X-H torsion

> <Gold.Protein.ActiveResidues>
 VAL82   VAL86   LEU89   PHE106  VAL107  ASP110  VAL111  MET112  CYS114  THR115 
 CYS181  SER182  ILE183  PHE188  VAL189  ILE190  SER192  SER193  SER196  TRP342 
 PHE345  PHE346  HIS349  VAL350  TYR365  THR369  GLY372  TYR373 

> <Gold.Protein.RotatedAtoms>
    3.9034  -10.2696    4.5609 H   0  0  0  0  0  0  0  0  0  0  0  0  # atno 1303 bound_to 1298
    0.9887   -9.2879    8.3108 H   0  0  0  0  0  0  0  0  0  0  0  0  # atno 2461 bound_to 2456
   -4.1118   -4.8083    7.7897 H   0  0  0  0  0  0  0  0  0  0  0  0  # atno 2472 bound_to 2467
    2.3064   -9.0093    5.8693 H   0  0  0  0  0  0  0  0  0  0  0  0  # atno 2515 bound_to 2510
   -3.2058  -16.6727   14.4311 H   0  0  0  0  0  0  0  0  0  0  0  0  # atno 3721 bound_to 3712
   -4.9435  -23.0853   10.0681 H   0  0  0  0  0  0  0  0  0  0  0  0  # atno 3767 bound_to 3762
    3.1068  -20.6683    8.8728 H   0  0  0  0  0  0  0  0  0  0  0  0  # atno 3841 bound_to 3832
    3.5705   -8.8712    3.7863 LP  0  0  0  0  0  0  0  0  0  0  0  0  # atno 4297 bound_to 1298
    4.8884   -8.9802    4.7444 LP  0  0  0  0  0  0  0  0  0  0  0  0  # atno 4298 bound_to 1298
    2.1353   -8.2897    7.7138 LP  0  0  0  0  0  0  0  0  0  0  0  0  # atno 4299 bound_to 2456
    0.6138   -8.2307    7.1237 LP  0  0  0  0  0  0  0  0  0  0  0  0  # atno 4300 bound_to 2456
    2.1631   -7.4488    5.4111 LP  0  0  0  0  0  0  0  0  0  0  0  0  # atno 4301 bound_to 2510
    2.8273   -8.5407    4.3946 LP  0  0  0  0  0  0  0  0  0  0  0  0  # atno 4302 bound_to 2510
   -3.2082  -17.3230   12.9632 LP  0  0  0  0  0  0  0  0  0  0  0  0  # atno 4306 bound_to 3712
   -2.6183  -18.1544   14.2389 LP  0  0  0  0  0  0  0  0  0  0  0  0  # atno 4307 bound_to 3712
    1.6292  -20.6941    9.4990 LP  0  0  0  0  0  0  0  0  0  0  0  0  # atno 4314 bound_to 3832
    2.0113  -19.6362    8.3152 LP  0  0  0  0  0  0  0  0  0  0  0  0  # atno 4315 bound_to 3832
   -5.2563  -21.9263   11.1752 LP  0  0  0  0  0  0  0  0  0  0  0  0  # atno 4318 bound_to 3762
   -3.9277  -22.8635   11.3274 LP  0  0  0  0  0  0  0  0  0  0  0  0  # atno 4319 bound_to 3762
   -4.0950   -5.3596    9.3266 LP  0  0  0  0  0  0  0  0  0  0  0  0  # atno 4320 bound_to 2467
   -5.5100   -5.2255    8.5227 LP  0  0  0  0  0  0  0  0  0  0  0  0  # atno 4321 bound_to 2467

> <Gold.Score>
     Score     S(PLP)   S(hbond)     S(cho)   S(metal)  DE(clash)   DE(tors)     intcor
     40.07     -31.12       2.98       0.00       0.00       0.00       0.00       0.00

> <Gold.PLP.Fitness>
40.0743

> <Gold.PLP.PLP>
-31.1223

> <Gold.PLP.part.hbond>
-2.0000

> <Gold.PLP.part.metal>
0.0000

> <Gold.PLP.part.buried>
-3.0191

> <Gold.PLP.part.nonpolar>
-26.8588

> <Gold.PLP.part.repulsive>
0.0435

> <Gold.PLP.ligand.clash>
0.0000

> <Gold.PLP.ligand.torsion>
0.0000

> <Gold.PLP.Chemscore.Hbond>
2.9840

> <Gold.PLP.Chemscore.CHOScore>
0.0000

> <Gold.PLP.Chemscore.Metal>
0.0000

> <Gold.Chemscore.Hbonds>
donor molecule, donor type, donor heavy atom, donor atom, acceptor molecule, acceptor atom, score
      L1  H     7    20       P1  1227  1.98
      P1  H  2456  2461       L1     3  1.00

> <Gold.PLP.Chemscore.Internal.Correction>
0.0000

