#       Name:                EN300-109827_i001
#       Creating user name   fsindt
#       Creation time:       Tue Feb 28 15:21:48 2023


#       File generated by GOLD software.
#

@<TRIPOS>MOLECULE
EN300-109827_i001|amine_7|mol2|6382|dock14
    21    22     1
SMALL
USER_CHARGES


@<TRIPOS>ATOM
      1 O1           0.5487 -11.0952   7.8854 O.2            1 <1>                0.0000
      2 C2          -0.0904 -11.4009   8.8727 C.2            1 <1>                0.0000
      3 O3          -0.7481 -10.5099   9.6290 O.3            1 <1>                0.0000
      4 C4          -1.5081 -11.2127  10.6573 C.3            1 <1>                0.0000
      5 C5          -1.2540 -12.6973  10.3549 C.3            1 <1>                0.0000
      6 C6          -0.6426 -13.4055  11.5674 C.3            1 <1>                0.0000
      7 N7          -0.1005 -14.7011  11.1322 N.4            1 <1>                1.0000
      8 C8           1.0316 -14.5185  10.2180 C.3            1 <1>                0.0000
      9 C9           0.5537 -13.8491   8.9196 C.3            1 <1>                0.0000
     10 N10         -0.2110 -12.6542   9.3064 N.am           1 <1>                0.0000
     11 H11         -1.1374 -10.9558  11.6496 H              1 <1>                0.0000
     12 H12         -2.5700 -10.9816  10.5731 H              1 <1>                0.0000
     13 H13         -2.1608 -13.1979  10.0156 H              1 <1>                0.0000
     14 H14          0.1591 -12.7943  11.9821 H              1 <1>                0.0000
     15 H15         -1.4114 -13.5661  12.3232 H              1 <1>                0.0000
     16 H16          1.7836 -13.8892  10.6940 H              1 <1>                0.0000
     17 H17          1.4689 -15.4893   9.9849 H              1 <1>                0.0000
     18 H18          1.4113 -13.5626   8.3110 H              1 <1>                0.0000
     19 H19         -0.0875 -14.5324   8.3628 H              1 <1>                0.0000
     20 H20          0.2075 -15.2198  11.9410 H              1 <1>                0.0000
     21 H21         -0.8253 -15.2222  10.6619 H              1 <1>                0.0000
@<TRIPOS>BOND
    1    1    2 2     
    2    2    3 1     
    3    2   10 am    
    4    3    4 1     
    5    4    5 1     
    6    4   11 1     
    7    4   12 1     
    8    5    6 1     
    9    5   10 1     
   10    5   13 1     
   11    6    7 1     
   12    6   14 1     
   13    6   15 1     
   14    7    8 1     
   15    7   20 1     
   16    7   21 1     
   17    8    9 1     
   18    8   16 1     
   19    8   17 1     
   20    9   10 1     
   21    9   18 1     
   22    9   19 1     
@<TRIPOS>SUBSTRUCTURE
      1 ****           1
@<TRIPOS>SET
DONOR_HYDROGENS      STATIC     ATOMS    <user>   **** ""
2 20 21
ATOM$RED        STATIC     ATOMS    COLORGROUP SYSTEM
2 20 21
@<TRIPOS>COMMENT
> <Gold.Version>
2022.2.0

> <Gold.Id.Protein>
3pbl|protein|mol2

> <Gold.Protein.RotatedTorsions>
[ 1303 1298 1297 1294 ] final  148.30 input  179.99 | X-H torsion
[ 2461 2456 2455 2452 ] final -138.07 input   30.03 | X-H torsion
[ 2515 2510 2509 2506 ] final   -0.63 input  -89.99 | X-H torsion
[ 3721 3712 3711 3710 ] final   40.07 input -179.91 | X-H torsion
[ 3841 3832 3831 3830 ] final -134.67 input -179.91 | X-H torsion
[ 3767 3762 3761 3758 ] final  103.74 input  -89.99 | X-H torsion
[ 2472 2467 2466 2463 ] final  116.43 input  -89.97 | X-H torsion

> <Gold.Protein.ActiveResidues>
 VAL82   VAL86   LEU89   PHE106  VAL107  ASP110  VAL111  MET112  CYS114  THR115 
 CYS181  SER182  ILE183  PHE188  VAL189  ILE190  SER192  SER193  SER196  TRP342 
 PHE345  PHE346  HIS349  VAL350  TYR365  THR369  GLY372  TYR373 

> <Gold.Protein.RotatedAtoms>
    4.8999   -9.3417    4.8933 H   0  0  0  0  0  0  0  0  0  0  0  0  # atno 1303 bound_to 1298
    0.8021   -9.2637    8.2215 H   0  0  0  0  0  0  0  0  0  0  0  0  # atno 2461 bound_to 2456
   -5.3906   -5.0552    8.0843 H   0  0  0  0  0  0  0  0  0  0  0  0  # atno 2472 bound_to 2467
    2.5452   -7.6358    4.6012 H   0  0  0  0  0  0  0  0  0  0  0  0  # atno 2515 bound_to 2510
   -2.5073  -18.0127   13.6518 H   0  0  0  0  0  0  0  0  0  0  0  0  # atno 3721 bound_to 3712
   -4.0617  -23.2874   10.6800 H   0  0  0  0  0  0  0  0  0  0  0  0  # atno 3767 bound_to 3762
    2.4244  -19.6503    8.3838 H   0  0  0  0  0  0  0  0  0  0  0  0  # atno 3841 bound_to 3832
    3.6134  -10.1673    4.3190 LP  0  0  0  0  0  0  0  0  0  0  0  0  # atno 4297 bound_to 1298
    3.8485   -8.6123    3.8790 LP  0  0  0  0  0  0  0  0  0  0  0  0  # atno 4298 bound_to 1298
    2.1611   -8.4313    7.8642 LP  0  0  0  0  0  0  0  0  0  0  0  0  # atno 4299 bound_to 2456
    0.7744   -8.1133    7.0626 LP  0  0  0  0  0  0  0  0  0  0  0  0  # atno 4300 bound_to 2456
    2.7114   -9.2076    5.0103 LP  0  0  0  0  0  0  0  0  0  0  0  0  # atno 4301 bound_to 2510
    2.0401   -8.1561    6.0640 LP  0  0  0  0  0  0  0  0  0  0  0  0  # atno 4302 bound_to 2510
   -3.1501  -17.1343   14.8322 LP  0  0  0  0  0  0  0  0  0  0  0  0  # atno 4306 bound_to 3712
   -3.4828  -16.7961   13.2696 LP  0  0  0  0  0  0  0  0  0  0  0  0  # atno 4307 bound_to 3712
    2.9522  -21.0399    8.9894 LP  0  0  0  0  0  0  0  0  0  0  0  0  # atno 4314 bound_to 3832
    1.4765  -20.4663    9.3896 LP  0  0  0  0  0  0  0  0  0  0  0  0  # atno 4315 bound_to 3832
   -5.4433  -22.5163   10.2757 LP  0  0  0  0  0  0  0  0  0  0  0  0  # atno 4318 bound_to 3762
   -4.6221  -22.0717   11.6153 LP  0  0  0  0  0  0  0  0  0  0  0  0  # atno 4319 bound_to 3762
   -3.7666   -4.8890    8.1210 LP  0  0  0  0  0  0  0  0  0  0  0  0  # atno 4320 bound_to 2467
   -4.5599   -5.4493    9.4337 LP  0  0  0  0  0  0  0  0  0  0  0  0  # atno 4321 bound_to 2467

> <Gold.Score>
     Score     S(PLP)   S(hbond)     S(cho)   S(metal)  DE(clash)   DE(tors)     intcor
     30.48     -27.48       1.00       0.00       0.00       0.00       0.00       0.00

> <Gold.PLP.Fitness>
30.4758

> <Gold.PLP.PLP>
-27.4758

> <Gold.PLP.part.hbond>
-1.2470

> <Gold.PLP.part.metal>
0.0000

> <Gold.PLP.part.buried>
-3.4931

> <Gold.PLP.part.nonpolar>
-22.8998

> <Gold.PLP.part.repulsive>
0.0358

> <Gold.PLP.ligand.clash>
0.0000

> <Gold.PLP.ligand.torsion>
0.0000

> <Gold.PLP.Chemscore.Hbond>
1.0000

> <Gold.PLP.Chemscore.CHOScore>
0.0000

> <Gold.PLP.Chemscore.Metal>
0.0000

> <Gold.Chemscore.Hbonds>
donor molecule, donor type, donor heavy atom, donor atom, acceptor molecule, acceptor atom, score
      P1  H  2456  2461       L1     1  1.00

> <Gold.PLP.Chemscore.Internal.Correction>
0.0000

