#       Name:                EN300-109827_i001
#       Creating user name   fsindt
#       Creation time:       Tue Feb 28 15:21:47 2023


#       File generated by GOLD software.
#

@<TRIPOS>MOLECULE
EN300-109827_i001|amine_7|mol2|6382|dock11
    21    22     1
SMALL
USER_CHARGES


@<TRIPOS>ATOM
      1 O1          -1.1850 -17.4827  15.2582 O.2            1 <1>                0.0000
      2 C2          -0.1023 -17.9078  14.9066 C.2            1 <1>                0.0000
      3 O3           0.5822 -18.8354  15.5918 O.3            1 <1>                0.0000
      4 C4           1.7754 -19.2117  14.8410 C.3            1 <1>                0.0000
      5 C5           1.6657 -18.3998  13.5415 C.3            1 <1>                0.0000
      6 C6           2.8968 -17.5097  13.3473 C.3            1 <1>                0.0000
      7 N7           2.5989 -16.5143  12.3069 N.4            1 <1>                1.0000
      8 C8           1.5539 -15.5855  12.7500 C.3            1 <1>                0.0000
      9 C9           0.2299 -16.3411  12.9456 C.3            1 <1>                0.0000
     10 N10          0.5183 -17.5023  13.8003 N.am           1 <1>                0.0000
     11 H11          2.6756 -18.9351  15.3898 H              1 <1>                0.0000
     12 H12          1.7707 -20.2802  14.6258 H              1 <1>                0.0000
     13 H13          1.4995 -19.0450  12.6789 H              1 <1>                0.0000
     14 H14          3.1322 -17.0019  14.2826 H              1 <1>                0.0000
     15 H15          3.7444 -18.1206  13.0368 H              1 <1>                0.0000
     16 H16          1.8524 -15.1280  13.6932 H              1 <1>                0.0000
     17 H17          1.4190 -14.8074  11.9987 H              1 <1>                0.0000
     18 H18         -0.5004 -15.6931  13.4300 H              1 <1>                0.0000
     19 H19         -0.1518 -16.6787  11.9821 H              1 <1>                0.0000
     20 H20          3.4372 -15.9937  12.0969 H              1 <1>                0.0000
     21 H21          2.2876 -16.9897  11.4731 H              1 <1>                0.0000
@<TRIPOS>BOND
    1    1    2 2     
    2    2    3 1     
    3    2   10 am    
    4    3    4 1     
    5    4    5 1     
    6    4   11 1     
    7    4   12 1     
    8    5    6 1     
    9    5   10 1     
   10    5   13 1     
   11    6    7 1     
   12    6   14 1     
   13    6   15 1     
   14    7    8 1     
   15    7   20 1     
   16    7   21 1     
   17    8    9 1     
   18    8   16 1     
   19    8   17 1     
   20    9   10 1     
   21    9   18 1     
   22    9   19 1     
@<TRIPOS>SUBSTRUCTURE
      1 ****           1
@<TRIPOS>SET
DONOR_HYDROGENS      STATIC     ATOMS    <user>   **** ""
2 20 21
ATOM$RED        STATIC     ATOMS    COLORGROUP SYSTEM
2 20 21
@<TRIPOS>COMMENT
> <Gold.Version>
2022.2.0

> <Gold.Id.Protein>
3pbl|protein|mol2

> <Gold.Protein.RotatedTorsions>
[ 1303 1298 1297 1294 ] final  -99.21 input  179.99 | X-H torsion
[ 2461 2456 2455 2452 ] final   82.54 input   30.03 | X-H torsion
[ 2515 2510 2509 2506 ] final  109.40 input  -89.99 | X-H torsion
[ 3721 3712 3711 3710 ] final  -20.10 input -179.91 | X-H torsion
[ 3841 3832 3831 3830 ] final  159.26 input -179.91 | X-H torsion
[ 3767 3762 3761 3758 ] final   -0.06 input  -89.99 | X-H torsion
[ 2472 2467 2466 2463 ] final  114.38 input  -89.97 | X-H torsion

> <Gold.Protein.ActiveResidues>
 VAL82   VAL86   LEU89   PHE106  VAL107  ASP110  VAL111  MET112  CYS114  THR115 
 CYS181  SER182  ILE183  PHE188  VAL189  ILE190  SER192  SER193  SER196  TRP342 
 PHE345  PHE346  HIS349  VAL350  TYR365  THR369  GLY372  TYR373 

> <Gold.Protein.RotatedAtoms>
    3.9477   -8.5566    3.9270 H   0  0  0  0  0  0  0  0  0  0  0  0  # atno 1303 bound_to 1298
    2.1041   -8.2204    7.6338 H   0  0  0  0  0  0  0  0  0  0  0  0  # atno 2461 bound_to 2456
   -5.3736   -5.0436    8.0574 H   0  0  0  0  0  0  0  0  0  0  0  0  # atno 2472 bound_to 2467
    2.0297   -8.0018    6.0102 H   0  0  0  0  0  0  0  0  0  0  0  0  # atno 2515 bound_to 2510
   -2.5538  -17.8011   14.4929 H   0  0  0  0  0  0  0  0  0  0  0  0  # atno 3721 bound_to 3712
   -5.3236  -22.7160   10.1476 H   0  0  0  0  0  0  0  0  0  0  0  0  # atno 3767 bound_to 3762
    3.0935  -20.2955    8.5471 H   0  0  0  0  0  0  0  0  0  0  0  0  # atno 3841 bound_to 3832
    4.8760   -9.4595    4.9217 LP  0  0  0  0  0  0  0  0  0  0  0  0  # atno 4297 bound_to 1298
    3.5385  -10.1055    4.2430 LP  0  0  0  0  0  0  0  0  0  0  0  0  # atno 4298 bound_to 1298
    0.5408   -8.3006    7.1680 LP  0  0  0  0  0  0  0  0  0  0  0  0  # atno 4299 bound_to 2456
    1.0932   -9.2870    8.3463 LP  0  0  0  0  0  0  0  0  0  0  0  0  # atno 4300 bound_to 2456
    2.6105   -7.7511    4.5050 LP  0  0  0  0  0  0  0  0  0  0  0  0  # atno 4301 bound_to 2510
    2.6567   -9.2464    5.1596 LP  0  0  0  0  0  0  0  0  0  0  0  0  # atno 4302 bound_to 2510
   -3.5316  -16.5740   14.1524 LP  0  0  0  0  0  0  0  0  0  0  0  0  # atno 4306 bound_to 3712
   -3.0477  -17.6007   12.9784 LP  0  0  0  0  0  0  0  0  0  0  0  0  # atno 4307 bound_to 3712
    2.0608  -21.0296    9.5323 LP  0  0  0  0  0  0  0  0  0  0  0  0  # atno 4314 bound_to 3832
    1.5951  -19.7313    8.6581 LP  0  0  0  0  0  0  0  0  0  0  0  0  # atno 4315 bound_to 3832
   -4.8483  -21.9693   11.5199 LP  0  0  0  0  0  0  0  0  0  0  0  0  # atno 4318 bound_to 3762
   -3.9557  -23.1898   10.9033 LP  0  0  0  0  0  0  0  0  0  0  0  0  # atno 4319 bound_to 3762
   -3.7499   -4.8973    8.1492 LP  0  0  0  0  0  0  0  0  0  0  0  0  # atno 4320 bound_to 2467
   -4.5935   -5.4526    9.4324 LP  0  0  0  0  0  0  0  0  0  0  0  0  # atno 4321 bound_to 2467

> <Gold.Score>
     Score     S(PLP)   S(hbond)     S(cho)   S(metal)  DE(clash)   DE(tors)     intcor
     31.73     -22.97       2.92       0.00       0.00       0.00       0.00       0.00

> <Gold.PLP.Fitness>
31.7296

> <Gold.PLP.PLP>
-22.9696

> <Gold.PLP.part.hbond>
-1.7590

> <Gold.PLP.part.metal>
0.0000

> <Gold.PLP.part.buried>
-4.1280

> <Gold.PLP.part.nonpolar>
-18.4820

> <Gold.PLP.part.repulsive>
0.1192

> <Gold.PLP.ligand.clash>
0.0000

> <Gold.PLP.ligand.torsion>
0.0000

> <Gold.PLP.Chemscore.Hbond>
2.9200

> <Gold.PLP.Chemscore.CHOScore>
0.0000

> <Gold.PLP.Chemscore.Metal>
0.0000

> <Gold.Chemscore.Hbonds>
donor molecule, donor type, donor heavy atom, donor atom, acceptor molecule, acceptor atom, score
      L1  H     7    21       P1  1227  1.92
      P1  H  3712  3721       L1     1  1.00

> <Gold.PLP.Chemscore.Internal.Correction>
0.0000

