#       Name:                EN300-109827_i001
#       Creating user name   fsindt
#       Creation time:       Tue Feb 28 15:21:47 2023


#       File generated by GOLD software.
#

@<TRIPOS>MOLECULE
EN300-109827_i001|amine_7|mol2|6382|dock7
    21    22     1
SMALL
USER_CHARGES


@<TRIPOS>ATOM
      1 O1          -0.0100 -11.5221  10.1056 O.2            1 <1>                0.0000
      2 C2           0.4552 -12.0499   9.1149 C.2            1 <1>                0.0000
      3 O3           0.6836 -11.3922   7.9687 O.3            1 <1>                0.0000
      4 C4           1.3550 -12.2798   7.0250 C.3            1 <1>                0.0000
      5 C5           1.5591 -13.5783   7.8200 C.3            1 <1>                0.0000
      6 C6           0.8994 -14.7639   7.1095 C.3            1 <1>                0.0000
      7 N7           0.8130 -15.8891   8.0520 N.4            1 <1>                1.0000
      8 C8          -0.1013 -15.5821   9.1568 C.3            1 <1>                0.0000
      9 C9           0.4611 -14.4236   9.9958 C.3            1 <1>                0.0000
     10 N10          0.7934 -13.3369   9.0627 N.am           1 <1>                0.0000
     11 H11          0.7244 -12.4596   6.1543 H              1 <1>                0.0000
     12 H12          2.3151 -11.8612   6.7231 H              1 <1>                0.0000
     13 H13          2.6148 -13.7669   8.0148 H              1 <1>                0.0000
     14 H14         -0.1017 -14.4831   6.7823 H              1 <1>                0.0000
     15 H15          1.5004 -15.0542   6.2476 H              1 <1>                0.0000
     16 H16         -1.0736 -15.2985   8.7540 H              1 <1>                0.0000
     17 H17         -0.2156 -16.4636   9.7877 H              1 <1>                0.0000
     18 H18         -0.2875 -14.0850  10.7120 H              1 <1>                0.0000
     19 H19          1.3603 -14.7464  10.5205 H              1 <1>                0.0000
     20 H20          0.4789 -16.7059   7.5629 H              1 <1>                0.0000
     21 H21          1.7309 -16.0798   8.4251 H              1 <1>                0.0000
@<TRIPOS>BOND
    1    1    2 2     
    2    2    3 1     
    3    2   10 am    
    4    3    4 1     
    5    4    5 1     
    6    4   11 1     
    7    4   12 1     
    8    5    6 1     
    9    5   10 1     
   10    5   13 1     
   11    6    7 1     
   12    6   14 1     
   13    6   15 1     
   14    7    8 1     
   15    7   20 1     
   16    7   21 1     
   17    8    9 1     
   18    8   16 1     
   19    8   17 1     
   20    9   10 1     
   21    9   18 1     
   22    9   19 1     
@<TRIPOS>SUBSTRUCTURE
      1 ****           1
@<TRIPOS>SET
DONOR_HYDROGENS      STATIC     ATOMS    <user>   **** ""
2 20 21
ATOM$RED        STATIC     ATOMS    COLORGROUP SYSTEM
2 20 21
@<TRIPOS>COMMENT
> <Gold.Version>
2022.2.0

> <Gold.Id.Protein>
3pbl|protein|mol2

> <Gold.Protein.RotatedTorsions>
[ 1303 1298 1297 1294 ] final -138.86 input  179.99 | X-H torsion
[ 2461 2456 2455 2452 ] final -146.53 input   30.03 | X-H torsion
[ 2515 2510 2509 2506 ] final   16.46 input  -89.99 | X-H torsion
[ 3721 3712 3711 3710 ] final   22.64 input -179.91 | X-H torsion
[ 3841 3832 3831 3830 ] final  118.85 input -179.91 | X-H torsion
[ 3767 3762 3761 3758 ] final  -20.14 input  -89.99 | X-H torsion
[ 2472 2467 2466 2463 ] final -135.38 input  -89.97 | X-H torsion

> <Gold.Protein.ActiveResidues>
 VAL82   VAL86   LEU89   PHE106  VAL107  ASP110  VAL111  MET112  CYS114  THR115 
 CYS181  SER182  ILE183  PHE188  VAL189  ILE190  SER192  SER193  SER196  TRP342 
 PHE345  PHE346  HIS349  VAL350  TYR365  THR369  GLY372  TYR373 

> <Gold.Protein.RotatedAtoms>
    4.4801   -8.5067    4.2776 H   0  0  0  0  0  0  0  0  0  0  0  0  # atno 1303 bound_to 1298
    0.9247   -9.2836    8.2841 H   0  0  0  0  0  0  0  0  0  0  0  0  # atno 2461 bound_to 2456
   -4.7520   -5.4629    9.4104 H   0  0  0  0  0  0  0  0  0  0  0  0  # atno 2472 bound_to 2467
    2.4263   -7.4882    4.8075 H   0  0  0  0  0  0  0  0  0  0  0  0  # atno 2515 bound_to 2510
   -2.4727  -18.0329   13.9112 H   0  0  0  0  0  0  0  0  0  0  0  0  # atno 3721 bound_to 3712
   -5.4632  -22.4685   10.3130 H   0  0  0  0  0  0  0  0  0  0  0  0  # atno 3767 bound_to 3762
    3.0755  -20.7352    8.9520 H   0  0  0  0  0  0  0  0  0  0  0  0  # atno 3841 bound_to 3832
    4.5513  -10.0104    4.9099 LP  0  0  0  0  0  0  0  0  0  0  0  0  # atno 4297 bound_to 1298
    3.3306   -9.6046    3.9041 LP  0  0  0  0  0  0  0  0  0  0  0  0  # atno 4298 bound_to 1298
    2.1488   -8.3355    7.7643 LP  0  0  0  0  0  0  0  0  0  0  0  0  # atno 4299 bound_to 2456
    0.6642   -8.1893    7.1000 LP  0  0  0  0  0  0  0  0  0  0  0  0  # atno 4300 bound_to 2456
    2.7847   -9.0806    4.7715 LP  0  0  0  0  0  0  0  0  0  0  0  0  # atno 4301 bound_to 2510
    2.0856   -8.4307    6.0964 LP  0  0  0  0  0  0  0  0  0  0  0  0  # atno 4302 bound_to 2510
   -3.2898  -16.9086   14.7151 LP  0  0  0  0  0  0  0  0  0  0  0  0  # atno 4306 bound_to 3712
   -3.3831  -16.9984   13.0872 LP  0  0  0  0  0  0  0  0  0  0  0  0  # atno 4307 bound_to 3712
    1.5593  -20.6042    9.4618 LP  0  0  0  0  0  0  0  0  0  0  0  0  # atno 4314 bound_to 3832
    2.1174  -19.6488    8.2608 LP  0  0  0  0  0  0  0  0  0  0  0  0  # atno 4315 bound_to 3832
   -4.5686  -22.1030   11.6294 LP  0  0  0  0  0  0  0  0  0  0  0  0  # atno 4318 bound_to 3762
   -4.0958  -23.3036   10.6285 LP  0  0  0  0  0  0  0  0  0  0  0  0  # atno 4319 bound_to 3762
   -5.2796   -4.9899    7.9392 LP  0  0  0  0  0  0  0  0  0  0  0  0  # atno 4320 bound_to 2467
   -3.6854   -4.9408    8.2896 LP  0  0  0  0  0  0  0  0  0  0  0  0  # atno 4321 bound_to 2467

> <Gold.Score>
     Score     S(PLP)   S(hbond)     S(cho)   S(metal)  DE(clash)   DE(tors)     intcor
     36.75     -29.36       2.46       0.00       0.00       0.00       0.00       0.00

> <Gold.PLP.Fitness>
36.7500

> <Gold.PLP.PLP>
-29.3648

> <Gold.PLP.part.hbond>
-2.0000

> <Gold.PLP.part.metal>
0.0000

> <Gold.PLP.part.buried>
-4.6760

> <Gold.PLP.part.nonpolar>
-23.0312

> <Gold.PLP.part.repulsive>
0.0061

> <Gold.PLP.ligand.clash>
0.0000

> <Gold.PLP.ligand.torsion>
0.0000

> <Gold.PLP.Chemscore.Hbond>
2.4618

> <Gold.PLP.Chemscore.CHOScore>
0.0000

> <Gold.PLP.Chemscore.Metal>
0.0000

> <Gold.Chemscore.Hbonds>
donor molecule, donor type, donor heavy atom, donor atom, acceptor molecule, acceptor atom, score
      L1  H     7    21       P1  1227  1.57
      P1  H  2456  2461       L1     3  0.89

> <Gold.PLP.Chemscore.Internal.Correction>
0.0000

