#       Name:                EN300-109827_i001
#       Creating user name   fsindt
#       Creation time:       Tue Feb 28 15:21:48 2023


#       File generated by GOLD software.
#

@<TRIPOS>MOLECULE
EN300-109827_i001|amine_7|mol2|6382|dock15
    21    22     1
SMALL
USER_CHARGES


@<TRIPOS>ATOM
      1 O1          -0.4021 -14.4856  12.2181 O.2            1 <1>                0.0000
      2 C2          -0.0936 -14.2101  11.0756 C.2            1 <1>                0.0000
      3 O3           0.7176 -14.9724  10.3277 O.3            1 <1>                0.0000
      4 C4           0.7853 -14.4283   8.9755 C.3            1 <1>                0.0000
      5 C5          -0.1823 -13.2356   9.0082 C.3            1 <1>                0.0000
      6 C6           0.5344 -11.9392   8.6193 C.3            1 <1>                0.0000
      7 N7          -0.3146 -10.7999   8.9974 N.4            1 <1>                1.0000
      8 C8          -0.4536 -10.7069  10.4544 C.3            1 <1>                0.0000
      9 C9          -1.2048 -11.9367  10.9886 C.3            1 <1>                0.0000
     10 N10         -0.5322 -13.1243  10.4414 N.am           1 <1>                0.0000
     11 H11          1.7974 -14.0935   8.7482 H              1 <1>                0.0000
     12 H12          0.4542 -15.1694   8.2480 H              1 <1>                0.0000
     13 H13         -1.0566 -13.4118   8.3816 H              1 <1>                0.0000
     14 H14          1.4870 -11.8759   9.1454 H              1 <1>                0.0000
     15 H15          0.7069 -11.9254   7.5430 H              1 <1>                0.0000
     16 H16          0.5355 -10.6607  10.9102 H              1 <1>                0.0000
     17 H17         -1.0099  -9.8046  10.7081 H              1 <1>                0.0000
     18 H18         -1.1646 -11.9534  12.0777 H              1 <1>                0.0000
     19 H19         -2.2419 -11.9138  10.6538 H              1 <1>                0.0000
     20 H20          0.0996  -9.9483   8.6493 H              1 <1>                0.0000
     21 H21         -1.2279 -10.9160   8.5844 H              1 <1>                0.0000
@<TRIPOS>BOND
    1    1    2 2     
    2    2    3 1     
    3    2   10 am    
    4    3    4 1     
    5    4    5 1     
    6    4   11 1     
    7    4   12 1     
    8    5    6 1     
    9    5   10 1     
   10    5   13 1     
   11    6    7 1     
   12    6   14 1     
   13    6   15 1     
   14    7    8 1     
   15    7   20 1     
   16    7   21 1     
   17    8    9 1     
   18    8   16 1     
   19    8   17 1     
   20    9   10 1     
   21    9   18 1     
   22    9   19 1     
@<TRIPOS>SUBSTRUCTURE
      1 ****           1
@<TRIPOS>SET
DONOR_HYDROGENS      STATIC     ATOMS    <user>   **** ""
2 20 21
ATOM$RED        STATIC     ATOMS    COLORGROUP SYSTEM
2 20 21
@<TRIPOS>COMMENT
> <Gold.Version>
2022.2.0

> <Gold.Id.Protein>
3pbl|protein|mol2

> <Gold.Protein.RotatedTorsions>
[ 1303 1298 1297 1294 ] final -115.23 input  179.99 | X-H torsion
[ 2461 2456 2455 2452 ] final  108.05 input   30.03 | X-H torsion
[ 2515 2510 2509 2506 ] final  -47.74 input  -89.99 | X-H torsion
[ 3721 3712 3711 3710 ] final    0.46 input -179.91 | X-H torsion
[ 3841 3832 3831 3830 ] final  114.78 input -179.91 | X-H torsion
[ 3767 3762 3761 3758 ] final   35.66 input  -89.99 | X-H torsion
[ 2472 2467 2466 2463 ] final -143.65 input  -89.97 | X-H torsion

> <Gold.Protein.ActiveResidues>
 VAL82   VAL86   LEU89   PHE106  VAL107  ASP110  VAL111  MET112  CYS114  THR115 
 CYS181  SER182  ILE183  PHE188  VAL189  ILE190  SER192  SER193  SER196  TRP342 
 PHE345  PHE346  HIS349  VAL350  TYR365  THR369  GLY372  TYR373 

> <Gold.Protein.RotatedAtoms>
    4.1676   -8.4854    4.0521 H   0  0  0  0  0  0  0  0  0  0  0  0  # atno 1303 bound_to 1298
    2.1578   -8.5030    7.9348 H   0  0  0  0  0  0  0  0  0  0  0  0  # atno 2461 bound_to 2456
   -4.8825   -5.4635    9.3723 H   0  0  0  0  0  0  0  0  0  0  0  0  # atno 2472 bound_to 2467
    2.7930   -8.3031    4.3549 H   0  0  0  0  0  0  0  0  0  0  0  0  # atno 2515 bound_to 2510
   -2.4860  -17.9593   14.2360 H   0  0  0  0  0  0  0  0  0  0  0  0  # atno 3721 bound_to 3712
   -4.9072  -23.1103   10.0731 H   0  0  0  0  0  0  0  0  0  0  0  0  # atno 3767 bound_to 3762
    3.0527  -20.7700    8.9973 H   0  0  0  0  0  0  0  0  0  0  0  0  # atno 3841 bound_to 3832
    4.7813   -9.7030    4.9505 LP  0  0  0  0  0  0  0  0  0  0  0  0  # atno 4297 bound_to 1298
    3.4133   -9.9332    4.0891 LP  0  0  0  0  0  0  0  0  0  0  0  0  # atno 4298 bound_to 1298
    0.8608   -8.0649    7.0443 LP  0  0  0  0  0  0  0  0  0  0  0  0  # atno 4299 bound_to 2456
    0.7194   -9.2402    8.1691 LP  0  0  0  0  0  0  0  0  0  0  0  0  # atno 4300 bound_to 2456
    2.4086   -9.1485    5.6978 LP  0  0  0  0  0  0  0  0  0  0  0  0  # atno 4301 bound_to 2510
    2.0950   -7.5476    5.6229 LP  0  0  0  0  0  0  0  0  0  0  0  0  # atno 4302 bound_to 2510
   -3.4393  -16.6872   14.4614 LP  0  0  0  0  0  0  0  0  0  0  0  0  # atno 4306 bound_to 3712
   -3.2183  -17.3048   12.9659 LP  0  0  0  0  0  0  0  0  0  0  0  0  # atno 4307 bound_to 3712
    1.5244  -20.5516    9.4364 LP  0  0  0  0  0  0  0  0  0  0  0  0  # atno 4314 bound_to 3832
    2.1786  -19.6612    8.2340 LP  0  0  0  0  0  0  0  0  0  0  0  0  # atno 4315 bound_to 3832
   -5.2832  -21.9331   11.1407 LP  0  0  0  0  0  0  0  0  0  0  0  0  # atno 4318 bound_to 3762
   -3.9370  -22.8318   11.3569 LP  0  0  0  0  0  0  0  0  0  0  0  0  # atno 4319 bound_to 3762
   -5.1836   -4.9481    7.8524 LP  0  0  0  0  0  0  0  0  0  0  0  0  # atno 4320 bound_to 2467
   -3.6508   -4.9820    8.4145 LP  0  0  0  0  0  0  0  0  0  0  0  0  # atno 4321 bound_to 2467

> <Gold.Score>
     Score     S(PLP)   S(hbond)     S(cho)   S(metal)  DE(clash)   DE(tors)     intcor
     31.45     -28.45       1.00       0.00       0.00       0.00       0.00       0.00

> <Gold.PLP.Fitness>
31.4475

> <Gold.PLP.PLP>
-28.4475

> <Gold.PLP.part.hbond>
-1.0000

> <Gold.PLP.part.metal>
0.0000

> <Gold.PLP.part.buried>
-3.7940

> <Gold.PLP.part.nonpolar>
-24.3730

> <Gold.PLP.part.repulsive>
0.1720

> <Gold.PLP.ligand.clash>
0.0000

> <Gold.PLP.ligand.torsion>
0.0000

> <Gold.PLP.Chemscore.Hbond>
1.0000

> <Gold.PLP.Chemscore.CHOScore>
0.0000

> <Gold.PLP.Chemscore.Metal>
0.0000

> <Gold.Chemscore.Hbonds>
donor molecule, donor type, donor heavy atom, donor atom, acceptor molecule, acceptor atom, score
      L1  H     7    20       P1  2456  1.00

> <Gold.PLP.Chemscore.Internal.Correction>
0.0000

