#       Name:                EN300-109827_i001
#       Creating user name   fsindt
#       Creation time:       Tue Feb 28 15:21:48 2023


#       File generated by GOLD software.
#

@<TRIPOS>MOLECULE
EN300-109827_i001|amine_7|mol2|6382|dock16
    21    22     1
SMALL
USER_CHARGES


@<TRIPOS>ATOM
      1 O1          -0.5502 -17.9878  15.0232 O.2            1 <1>                0.0000
      2 C2          -0.1416 -17.2067  14.1869 C.2            1 <1>                0.0000
      3 O3           0.1222 -15.9183  14.4493 O.3            1 <1>                0.0000
      4 C4           0.7086 -15.2924  13.2689 C.3            1 <1>                0.0000
      5 C5           0.8208 -16.4432  12.2575 C.3            1 <1>                0.0000
      6 C6           0.0602 -16.1152  10.9693 C.3            1 <1>                0.0000
      7 N7          -0.1016 -17.3514  10.1900 N.4            1 <1>                1.0000
      8 C8          -0.9738 -18.3030  10.8863 C.3            1 <1>                0.0000
      9 C9          -0.3105 -18.7607  12.1951 C.3            1 <1>                0.0000
     10 N10          0.0935 -17.5476  12.9211 N.am           1 <1>                0.0000
     11 H11          0.0540 -14.5094  12.8862 H              1 <1>                0.0000
     12 H12          1.6945 -14.8889  13.4999 H              1 <1>                0.0000
     13 H13          1.8610 -16.6970  12.0533 H              1 <1>                0.0000
     14 H14         -0.9201 -15.7080  11.2171 H              1 <1>                0.0000
     15 H15          0.6245 -15.3869  10.3868 H              1 <1>                0.0000
     16 H16         -1.9261 -17.8231  11.1117 H              1 <1>                0.0000
     17 H17         -1.1485 -19.1684  10.2472 H              1 <1>                0.0000
     18 H18         -1.0203 -19.3338  12.7915 H              1 <1>                0.0000
     19 H19          0.5676 -19.3677  11.9748 H              1 <1>                0.0000
     20 H20         -0.5057 -17.1271   9.2932 H              1 <1>                0.0000
     21 H21          0.8034 -17.7743  10.0482 H              1 <1>                0.0000
@<TRIPOS>BOND
    1    1    2 2     
    2    2    3 1     
    3    2   10 am    
    4    3    4 1     
    5    4    5 1     
    6    4   11 1     
    7    4   12 1     
    8    5    6 1     
    9    5   10 1     
   10    5   13 1     
   11    6    7 1     
   12    6   14 1     
   13    6   15 1     
   14    7    8 1     
   15    7   20 1     
   16    7   21 1     
   17    8    9 1     
   18    8   16 1     
   19    8   17 1     
   20    9   10 1     
   21    9   18 1     
   22    9   19 1     
@<TRIPOS>SUBSTRUCTURE
      1 ****           1
@<TRIPOS>SET
DONOR_HYDROGENS      STATIC     ATOMS    <user>   **** ""
2 20 21
ATOM$RED        STATIC     ATOMS    COLORGROUP SYSTEM
2 20 21
@<TRIPOS>COMMENT
> <Gold.Version>
2022.2.0

> <Gold.Id.Protein>
3pbl|protein|mol2

> <Gold.Protein.RotatedTorsions>
[ 1303 1298 1297 1294 ] final  -31.92 input  179.99 | X-H torsion
[ 2461 2456 2455 2452 ] final -152.29 input   30.03 | X-H torsion
[ 2515 2510 2509 2506 ] final  -76.09 input  -89.99 | X-H torsion
[ 3721 3712 3711 3710 ] final  -27.50 input -179.91 | X-H torsion
[ 3841 3832 3831 3830 ] final  122.43 input -179.91 | X-H torsion
[ 3767 3762 3761 3758 ] final  126.54 input  -89.99 | X-H torsion
[ 2472 2467 2466 2463 ] final -102.13 input  -89.97 | X-H torsion

> <Gold.Protein.ActiveResidues>
 VAL82   VAL86   LEU89   PHE106  VAL107  ASP110  VAL111  MET112  CYS114  THR115 
 CYS181  SER182  ILE183  PHE188  VAL189  ILE190  SER192  SER193  SER196  TRP342 
 PHE345  PHE346  HIS349  VAL350  TYR365  THR369  GLY372  TYR373 

> <Gold.Protein.RotatedAtoms>
    3.3417   -9.4022    3.8339 H   0  0  0  0  0  0  0  0  0  0  0  0  # atno 1303 bound_to 1298
    1.0125   -9.2886    8.3198 H   0  0  0  0  0  0  0  0  0  0  0  0  # atno 2461 bound_to 2456
   -4.2179   -5.3931    9.3799 H   0  0  0  0  0  0  0  0  0  0  0  0  # atno 2472 bound_to 2467
    2.8357   -8.7454    4.4798 H   0  0  0  0  0  0  0  0  0  0  0  0  # atno 2515 bound_to 2510
   -2.5897  -17.7267   14.5681 H   0  0  0  0  0  0  0  0  0  0  0  0  # atno 3721 bound_to 3712
   -3.9285  -23.1361   10.9937 H   0  0  0  0  0  0  0  0  0  0  0  0  # atno 3767 bound_to 3762
    3.0926  -20.7027    8.9124 H   0  0  0  0  0  0  0  0  0  0  0  0  # atno 3841 bound_to 3832
    4.6305   -8.5820    4.4107 LP  0  0  0  0  0  0  0  0  0  0  0  0  # atno 4297 bound_to 1298
    4.3903  -10.1371    4.8472 LP  0  0  0  0  0  0  0  0  0  0  0  0  # atno 4298 bound_to 1298
    2.1291   -8.2734    7.6953 LP  0  0  0  0  0  0  0  0  0  0  0  0  # atno 4299 bound_to 2456
    0.5961   -8.2464    7.1332 LP  0  0  0  0  0  0  0  0  0  0  0  0  # atno 4300 bound_to 2456
    2.2200   -8.8435    5.9888 LP  0  0  0  0  0  0  0  0  0  0  0  0  # atno 4301 bound_to 2510
    2.2408   -7.4100    5.2070 LP  0  0  0  0  0  0  0  0  0  0  0  0  # atno 4302 bound_to 2510
   -3.5514  -16.5582   14.0315 LP  0  0  0  0  0  0  0  0  0  0  0  0  # atno 4306 bound_to 3712
   -2.9864  -17.7023   13.0125 LP  0  0  0  0  0  0  0  0  0  0  0  0  # atno 4307 bound_to 3712
    1.5928  -20.6495    9.4816 LP  0  0  0  0  0  0  0  0  0  0  0  0  # atno 4314 bound_to 3832
    2.0641  -19.6410    8.2869 LP  0  0  0  0  0  0  0  0  0  0  0  0  # atno 4315 bound_to 3832
   -5.2606  -22.7969   10.1119 LP  0  0  0  0  0  0  0  0  0  0  0  0  # atno 4318 bound_to 3762
   -4.9380  -21.9423   11.4655 LP  0  0  0  0  0  0  0  0  0  0  0  0  # atno 4319 bound_to 3762
   -5.5014   -5.1780    8.3935 LP  0  0  0  0  0  0  0  0  0  0  0  0  # atno 4320 bound_to 2467
   -3.9975   -4.8224    7.8659 LP  0  0  0  0  0  0  0  0  0  0  0  0  # atno 4321 bound_to 2467

> <Gold.Score>
     Score     S(PLP)   S(hbond)     S(cho)   S(metal)  DE(clash)   DE(tors)     intcor
     31.30     -20.06       3.75       0.00       0.00       0.00       0.00       0.00

> <Gold.PLP.Fitness>
31.2956

> <Gold.PLP.PLP>
-20.0606

> <Gold.PLP.part.hbond>
-3.0000

> <Gold.PLP.part.metal>
0.0000

> <Gold.PLP.part.buried>
-2.6602

> <Gold.PLP.part.nonpolar>
-14.9595

> <Gold.PLP.part.repulsive>
0.0827

> <Gold.PLP.ligand.clash>
0.0000

> <Gold.PLP.ligand.torsion>
0.0000

> <Gold.PLP.Chemscore.Hbond>
3.7450

> <Gold.PLP.Chemscore.CHOScore>
0.0000

> <Gold.PLP.Chemscore.Metal>
0.0000

> <Gold.Chemscore.Hbonds>
donor molecule, donor type, donor heavy atom, donor atom, acceptor molecule, acceptor atom, score
      L1  H     7    21       P1  1227  1.95
      P1  H  2305  2313       L1     3  1.00
      P1  H  3712  3721       L1     1  0.79

> <Gold.PLP.Chemscore.Internal.Correction>
0.0000

