#       Name:                EN300-109827_i001
#       Creating user name   fsindt
#       Creation time:       Tue Feb 28 15:21:46 2023


#       File generated by GOLD software.
#

@<TRIPOS>MOLECULE
EN300-109827_i001|amine_7|mol2|6382|dock5
    21    22     1
SMALL
USER_CHARGES


@<TRIPOS>ATOM
      1 O1          -0.6958 -10.5272   8.7935 O.2            1 <1>                0.0000
      2 C2          -0.6798 -11.4338   9.6023 C.2            1 <1>                0.0000
      3 O3          -0.9813 -11.2694  10.8987 O.3            1 <1>                0.0000
      4 C4          -0.9855 -12.5676  11.5648 C.3            1 <1>                0.0000
      5 C5          -0.6999 -13.5652  10.4321 C.3            1 <1>                0.0000
      6 C6           0.5484 -14.3979  10.7385 C.3            1 <1>                0.0000
      7 N7           0.9797 -15.0717   9.5049 N.4            1 <1>                1.0000
      8 C8           1.4359 -14.1000   8.5056 C.3            1 <1>                0.0000
      9 C9           0.2619 -13.2114   8.0648 C.3            1 <1>                0.0000
     10 N10         -0.3665 -12.6893   9.2873 N.am           1 <1>                0.0000
     11 H11         -0.2012 -12.6122  12.3204 H              1 <1>                0.0000
     12 H12         -1.9599 -12.7650  12.0116 H              1 <1>                0.0000
     13 H13         -1.5630 -14.1994  10.2298 H              1 <1>                0.0000
     14 H14          1.3447 -13.7451  11.0963 H              1 <1>                0.0000
     15 H15          0.3136 -15.1426  11.4990 H              1 <1>                0.0000
     16 H16          2.2192 -13.4771   8.9375 H              1 <1>                0.0000
     17 H17          1.8332 -14.6304   7.6401 H              1 <1>                0.0000
     18 H18          0.6282 -12.3876   7.4522 H              1 <1>                0.0000
     19 H19         -0.4611 -13.8020   7.5023 H              1 <1>                0.0000
     20 H20          1.7352 -15.7048   9.7201 H              1 <1>                0.0000
     21 H21          0.2058 -15.5971   9.1267 H              1 <1>                0.0000
@<TRIPOS>BOND
    1    1    2 2     
    2    2    3 1     
    3    2   10 am    
    4    3    4 1     
    5    4    5 1     
    6    4   11 1     
    7    4   12 1     
    8    5    6 1     
    9    5   10 1     
   10    5   13 1     
   11    6    7 1     
   12    6   14 1     
   13    6   15 1     
   14    7    8 1     
   15    7   20 1     
   16    7   21 1     
   17    8    9 1     
   18    8   16 1     
   19    8   17 1     
   20    9   10 1     
   21    9   18 1     
   22    9   19 1     
@<TRIPOS>SUBSTRUCTURE
      1 ****           1
@<TRIPOS>SET
DONOR_HYDROGENS      STATIC     ATOMS    <user>   **** ""
2 20 21
ATOM$RED        STATIC     ATOMS    COLORGROUP SYSTEM
2 20 21
@<TRIPOS>COMMENT
> <Gold.Version>
2022.2.0

> <Gold.Id.Protein>
3pbl|protein|mol2

> <Gold.Protein.RotatedTorsions>
[ 1303 1298 1297 1294 ] final -170.30 input  179.99 | X-H torsion
[ 2461 2456 2455 2452 ] final -140.25 input   30.03 | X-H torsion
[ 2515 2510 2509 2506 ] final -124.12 input  -89.99 | X-H torsion
[ 3721 3712 3711 3710 ] final -136.27 input -179.91 | X-H torsion
[ 3841 3832 3831 3830 ] final   -6.32 input -179.91 | X-H torsion
[ 3767 3762 3761 3758 ] final   26.55 input  -89.99 | X-H torsion
[ 2472 2467 2466 2463 ] final   45.57 input  -89.97 | X-H torsion

> <Gold.Protein.ActiveResidues>
 VAL82   VAL86   LEU89   PHE106  VAL107  ASP110  VAL111  MET112  CYS114  THR115 
 CYS181  SER182  ILE183  PHE188  VAL189  ILE190  SER192  SER193  SER196  TRP342 
 PHE345  PHE346  HIS349  VAL350  TYR365  THR369  GLY372  TYR373 

> <Gold.Protein.RotatedAtoms>
    4.7949   -8.7562    4.5931 H   0  0  0  0  0  0  0  0  0  0  0  0  # atno 1303 bound_to 1298
    0.8329   -9.2702    8.2388 H   0  0  0  0  0  0  0  0  0  0  0  0  # atno 2461 bound_to 2456
   -4.4079   -4.8009    7.6787 H   0  0  0  0  0  0  0  0  0  0  0  0  # atno 2472 bound_to 2467
    2.6932   -9.2239    5.0621 H   0  0  0  0  0  0  0  0  0  0  0  0  # atno 2515 bound_to 2510
   -3.2893  -16.5645   14.1896 H   0  0  0  0  0  0  0  0  0  0  0  0  # atno 3721 bound_to 3712
   -5.0277  -23.0220   10.0632 H   0  0  0  0  0  0  0  0  0  0  0  0  # atno 3767 bound_to 3762
    1.6860  -20.4136    9.5244 H   0  0  0  0  0  0  0  0  0  0  0  0  # atno 3841 bound_to 3832
    4.1418  -10.2476    4.7174 LP  0  0  0  0  0  0  0  0  0  0  0  0  # atno 4297 bound_to 1298
    3.4252   -9.1178    3.7810 LP  0  0  0  0  0  0  0  0  0  0  0  0  # atno 4298 bound_to 1298
    2.1598   -8.4062    7.8387 LP  0  0  0  0  0  0  0  0  0  0  0  0  # atno 4299 bound_to 2456
    0.7449   -8.1320    7.0709 LP  0  0  0  0  0  0  0  0  0  0  0  0  # atno 4300 bound_to 2456
    2.0350   -8.1012    6.0481 LP  0  0  0  0  0  0  0  0  0  0  0  0  # atno 4301 bound_to 2510
    2.5684   -7.6736    4.5651 LP  0  0  0  0  0  0  0  0  0  0  0  0  # atno 4302 bound_to 2510
   -3.0549  -17.5885   12.9754 LP  0  0  0  0  0  0  0  0  0  0  0  0  # atno 4306 bound_to 3712
   -2.6751  -18.0139   14.5056 LP  0  0  0  0  0  0  0  0  0  0  0  0  # atno 4307 bound_to 3712
    2.2401  -19.6772    8.2103 LP  0  0  0  0  0  0  0  0  0  0  0  0  # atno 4314 bound_to 3832
    3.0417  -20.9474    8.8512 LP  0  0  0  0  0  0  0  0  0  0  0  0  # atno 4315 bound_to 3832
   -5.1873  -21.9164   11.2544 LP  0  0  0  0  0  0  0  0  0  0  0  0  # atno 4318 bound_to 3762
   -3.9125  -22.9368   11.2531 LP  0  0  0  0  0  0  0  0  0  0  0  0  # atno 4319 bound_to 3762
   -3.8549   -5.2669    9.1428 LP  0  0  0  0  0  0  0  0  0  0  0  0  # atno 4320 bound_to 2467
   -5.4541   -5.3256    8.8174 LP  0  0  0  0  0  0  0  0  0  0  0  0  # atno 4321 bound_to 2467

> <Gold.Score>
     Score     S(PLP)   S(hbond)     S(cho)   S(metal)  DE(clash)   DE(tors)     intcor
     35.71     -26.71       3.00       0.00       0.00       0.00       0.00       0.00

> <Gold.PLP.Fitness>
35.7114

> <Gold.PLP.PLP>
-26.7114

> <Gold.PLP.part.hbond>
-2.0000

> <Gold.PLP.part.metal>
0.0000

> <Gold.PLP.part.buried>
-3.9464

> <Gold.PLP.part.nonpolar>
-20.6733

> <Gold.PLP.part.repulsive>
0.0267

> <Gold.PLP.ligand.clash>
0.0000

> <Gold.PLP.ligand.torsion>
0.0000

> <Gold.PLP.Chemscore.Hbond>
3.0000

> <Gold.PLP.Chemscore.CHOScore>
0.0000

> <Gold.PLP.Chemscore.Metal>
0.0000

> <Gold.Chemscore.Hbonds>
donor molecule, donor type, donor heavy atom, donor atom, acceptor molecule, acceptor atom, score
      L1  H     7    20       P1  1227  2.00
      P1  H  2456  2461       L1     1  1.00

> <Gold.PLP.Chemscore.Internal.Correction>
0.0000

