#       Name:                plp ligand
#       Creating user name   fsindt
#       Creation time:       Tue Feb 28 15:21:45 2023


#       File generated by GOLD software.
#

@<TRIPOS>MOLECULE
plp ligand
    21    22     1
SMALL
USER_CHARGES


@<TRIPOS>ATOM
      1 O1           2.7493  -1.6481   0.1420 ACCEPTOR       1 <1>                0.0000
      2 C2           2.1122  -0.6167   0.0591 NONPOLAR       1 <1>                0.0000
      3 O3           2.6390   0.5947   0.2903 ACCEPTOR       1 <1>                0.0000
      4 C4           1.6474   1.6214  -0.0125 NONPOLAR       1 <1>                0.0000
      5 C5           0.4410   0.8272  -0.5357 NONPOLAR       1 <1>                0.0000
      6 C6          -0.8081   1.1146   0.3026 NONPOLAR       1 <1>                0.0000
      7 N7          -1.8232   0.0948   0.0002 DONOR          1 <1>                1.0000
      8 C8          -1.3887  -1.2313   0.4513 NONPOLAR       1 <1>                0.0000
      9 C9          -0.1516  -1.6762  -0.3449 NONPOLAR       1 <1>                0.0000
     10 N10          0.8238  -0.5781  -0.2756 NONPOLAR       1 <1>                0.0000
     11 H11          1.3803   2.1728   0.8890                1 <1>                0.0000
     12 H12          2.0209   2.2993  -0.7800                1 <1>                0.0000
     13 H13          0.2641   1.0184  -1.5941                1 <1>                0.0000
     14 H14         -0.5545   1.0754   1.3620                1 <1>                0.0000
     15 H15         -1.1964   2.1022   0.0535                1 <1>                0.0000
     16 H16         -1.1408  -1.1897   1.5119                1 <1>                0.0000
     17 H17         -2.1952  -1.9482   0.2974                1 <1>                0.0000
     18 H18          0.2704  -2.5789   0.0967                1 <1>                0.0000
     19 H19         -0.4245  -1.8614  -1.3838                1 <1>                0.0000
     20 H20         -2.6849   0.3370   0.4658                1 <1>                0.0000
     21 H21         -1.9815   0.0703  -0.9960                1 <1>                0.0000
@<TRIPOS>BOND
    1    1    2 2     
    2    2    3 1     
    3    2   10 am    
    4    3    4 1     
    5    4    5 1     
    6    4   11 1     
    7    4   12 1     
    8    5    6 1     
    9    5   10 1     
   10    5   13 1     
   11    6    7 1     
   12    6   14 1     
   13    6   15 1     
   14    7    8 1     
   15    7   20 1     
   16    7   21 1     
   17    8    9 1     
   18    8   16 1     
   19    8   17 1     
   20    9   10 1     
   21    9   18 1     
   22    9   19 1     
@<TRIPOS>SUBSTRUCTURE
      1 ****           1
@<TRIPOS>SET
DONOR_HYDROGENS      STATIC     ATOMS    <user>   **** ""
2 20 21
ATOM$RED        STATIC     ATOMS    COLORGROUP SYSTEM
2 20 21
