#       Name:                EN300-132581_i001
#       Creating user name   aseyller
#       Creation time:       Fri Apr 21 19:24:09 2023


#       File generated by GOLD software.
#

@<TRIPOS>MOLECULE
EN300-132581_i001|benzaldehydes|mol2|815|dock6
    22    23     1
SMALL
USER_CHARGES


@<TRIPOS>ATOM
      1 O1          26.1895  36.9922  40.4094 O.2            1 <1>                0.0000
      2 C2          27.2218  36.4039  40.6534 C.2            1 <1>                0.0000
      3 C3          28.3361  36.4502  39.6991 C.2            1 <1>                0.0000
      4 C4          29.5269  35.7623  39.8112 C.2            1 <1>                0.0000
      5 N5          30.2630  36.0862  38.7305 N.pl3          1 <1>                0.0000
      6 C6          31.6073  35.5980  38.4129 C.3            1 <1>                0.0000
      7 C7          32.0969  36.2598  37.1507 C.ar           1 <1>                0.0000
      8 C8          32.0723  37.6407  37.0268 C.ar           1 <1>                0.0000
      9 C9          32.5326  38.2057  35.8475 C.ar           1 <1>                0.0000
     10 C10         32.9975  37.3796  34.8415 C.ar           1 <1>                0.0000
     11 N11         33.0060  36.0700  34.9941 N.ar           1 <1>                0.0000
     12 C12         32.5812  35.4984  36.1042 C.ar           1 <1>                0.0000
     13 N13         29.4978  36.9785  37.9672 N.2            1 <1>                0.0000
     14 N14         28.3709  37.1666  38.5600 N.2            1 <1>                0.0000
     15 H15         27.3228  35.8497  41.5749 H              1 <1>                0.0000
     16 H16         29.8133  35.0944  40.6101 H              1 <1>                0.0000
     17 H17         32.2837  35.8361  39.2339 H              1 <1>                0.0000
     18 H18         31.5770  34.5180  38.2688 H              1 <1>                0.0000
     19 H19         31.7031  38.2613  37.8300 H              1 <1>                0.0000
     20 H20         32.5278  39.2777  35.7165 H              1 <1>                0.0000
     21 H21         33.3574  37.8119  33.9195 H              1 <1>                0.0000
     22 H22         32.6037  34.4222  36.1928 H              1 <1>                0.0000
@<TRIPOS>BOND
    1    1    2 2     
    2    2    3 1     
    3    2   15 1     
    4    3    4 2     
    5    3   14 1     
    6    4    5 1     
    7    4   16 1     
    8    5    6 1     
    9    5   13 1     
   10    6    7 1     
   11    6   17 1     
   12    6   18 1     
   13    7    8 ar    
   14    7   12 ar    
   15    8    9 ar    
   16    8   19 1     
   17    9   10 ar    
   18    9   20 1     
   19   10   11 ar    
   20   10   21 1     
   21   11   12 ar    
   22   12   22 1     
   23   13   14 2     
@<TRIPOS>SUBSTRUCTURE
      1 ****           1
@<TRIPOS>COMMENT
> <Gold.Version>
2022.2.0

> <Gold.Id.Protein>
1qkm|1qkm_protein|mol2

> <Gold.Protein.RotatedTorsions>
[  496  491  490  487 ] final  142.64 input  -89.99 | X-H torsion

> <Gold.Protein.ActiveResidues>
 MET295  LEU298  THR299  LEU301  ALA302  GLU305  TRP335  MET336  LEU339  MET340 
 GLY342  LEU343  ARG346  PHE356  ILE373  ILE376  PHE377  LEU380  LYS471  GLY472 
 MET473  HIS475  LEU476  LEU477  ASN478  MET479  VAL484  VAL487 

> <Gold.Protein.RotatedAtoms>
   37.2284   33.0438   41.2945 H   0  0  0  0  0  0  0  0  0  0  0  0  # atno 496  bound_to 491 

> <Gold.Score>
     Score     S(PLP)   S(hbond)     S(cho)   S(metal)  DE(clash)   DE(tors)     intcor
     44.94     -39.09       0.00       2.00       0.00       0.00       0.07       0.00

> <Gold.PLP.Fitness>
44.9446

> <Gold.PLP.PLP>
-39.0916

> <Gold.PLP.part.hbond>
0.0000

> <Gold.PLP.part.metal>
0.0000

> <Gold.PLP.part.buried>
-5.2287

> <Gold.PLP.part.nonpolar>
-35.0994

> <Gold.PLP.part.repulsive>
0.2380

> <Gold.PLP.ligand.clash>
0.0000

> <Gold.PLP.ligand.torsion>
0.0740

> <Gold.PLP.Chemscore.Hbond>
0.0000

> <Gold.PLP.Chemscore.CHOScore>
2.0000

> <Gold.PLP.Chemscore.Metal>
0.0000

> <Gold.Chemscore.Hbonds>
donor molecule, donor type, donor heavy atom, donor atom, acceptor molecule, acceptor atom, score
      L1  C     4    16       P1   470  1.00
      L1  C    10    21       P1  3229  1.00

> <Gold.PLP.Chemscore.Internal.Correction>
0.0010

