#       Name:                EN300-132581_i001
#       Creating user name   aseyller
#       Creation time:       Fri Apr 21 19:24:19 2023


#       File generated by GOLD software.
#

@<TRIPOS>MOLECULE
EN300-132581_i001|benzaldehydes|mol2|815|dock20
    22    23     1
SMALL
USER_CHARGES


@<TRIPOS>ATOM
      1 O1          32.7926  36.4073  35.7697 O.2            1 <1>                0.0000
      2 C2          32.1360  36.9970  36.6019 C.2            1 <1>                0.0000
      3 C3          31.4330  36.2462  37.6490 C.2            1 <1>                0.0000
      4 C4          30.7092  36.7922  38.6891 C.2            1 <1>                0.0000
      5 N5          30.2337  35.7600  39.4122 N.pl3          1 <1>                0.0000
      6 C6          29.4051  35.8479  40.6172 C.3            1 <1>                0.0000
      7 C7          28.0211  36.3114  40.2424 C.ar           1 <1>                0.0000
      8 C8          27.7217  36.6376  38.9283 C.ar           1 <1>                0.0000
      9 C9          26.4353  37.0594  38.6298 C.ar           1 <1>                0.0000
     10 C10         25.5005  37.1401  39.6448 C.ar           1 <1>                0.0000
     11 N11         25.8207  36.8217  40.8836 N.ar           1 <1>                0.0000
     12 C12         27.0327  36.4113  41.2029 C.ar           1 <1>                0.0000
     13 N13         30.6819  34.5857  38.7921 N.2            1 <1>                0.0000
     14 N14         31.3777  34.9056  37.7575 N.2            1 <1>                0.0000
     15 H15         32.0723  38.0748  36.5750 H              1 <1>                0.0000
     16 H16         30.5544  37.8429  38.8855 H              1 <1>                0.0000
     17 H17         29.3445  34.8670  41.0889 H              1 <1>                0.0000
     18 H18         29.8504  36.5588  41.3132 H              1 <1>                0.0000
     19 H19         28.4730  36.5651  38.1557 H              1 <1>                0.0000
     20 H20         26.1670  37.3218  37.6171 H              1 <1>                0.0000
     21 H21         24.4962  37.4681  39.4206 H              1 <1>                0.0000
     22 H22         27.2578  36.1590  42.2286 H              1 <1>                0.0000
@<TRIPOS>BOND
    1    1    2 2     
    2    2    3 1     
    3    2   15 1     
    4    3    4 2     
    5    3   14 1     
    6    4    5 1     
    7    4   16 1     
    8    5    6 1     
    9    5   13 1     
   10    6    7 1     
   11    6   17 1     
   12    6   18 1     
   13    7    8 ar    
   14    7   12 ar    
   15    8    9 ar    
   16    8   19 1     
   17    9   10 ar    
   18    9   20 1     
   19   10   11 ar    
   20   10   21 1     
   21   11   12 ar    
   22   12   22 1     
   23   13   14 2     
@<TRIPOS>SUBSTRUCTURE
      1 ****           1
@<TRIPOS>COMMENT
> <Gold.Version>
2022.2.0

> <Gold.Id.Protein>
1qkm|1qkm_protein|mol2

> <Gold.Protein.RotatedTorsions>
[  496  491  490  487 ] final  174.94 input  -89.99 | X-H torsion

> <Gold.Protein.ActiveResidues>
 MET295  LEU298  THR299  LEU301  ALA302  GLU305  TRP335  MET336  LEU339  MET340 
 GLY342  LEU343  ARG346  PHE356  ILE373  ILE376  PHE377  LEU380  LYS471  GLY472 
 MET473  HIS475  LEU476  LEU477  ASN478  MET479  VAL484  VAL487 

> <Gold.Protein.RotatedAtoms>
   37.3186   33.3911   40.9118 H   0  0  0  0  0  0  0  0  0  0  0  0  # atno 496  bound_to 491 

> <Gold.Score>
     Score     S(PLP)   S(hbond)     S(cho)   S(metal)  DE(clash)   DE(tors)     intcor
     44.13     -38.98       0.00       1.80       0.00       0.00       0.13       0.00

> <Gold.PLP.Fitness>
44.1300

> <Gold.PLP.PLP>
-38.9842

> <Gold.PLP.part.hbond>
0.0000

> <Gold.PLP.part.metal>
0.0000

> <Gold.PLP.part.buried>
-1.9512

> <Gold.PLP.part.nonpolar>
-37.8828

> <Gold.PLP.part.repulsive>
0.3372

> <Gold.PLP.ligand.clash>
0.0000

> <Gold.PLP.ligand.torsion>
0.1292

> <Gold.PLP.Chemscore.Hbond>
0.0000

> <Gold.PLP.Chemscore.CHOScore>
1.8014

> <Gold.PLP.Chemscore.Metal>
0.0000

> <Gold.Chemscore.Hbonds>
donor molecule, donor type, donor heavy atom, donor atom, acceptor molecule, acceptor atom, score
      L1  C    10    21       P1  1131  0.81
      L1  C    12    22       P1   582  0.99

> <Gold.PLP.Chemscore.Internal.Correction>
0.0002

