#       Name:                EN300-132581_i001
#       Creating user name   aseyller
#       Creation time:       Fri Apr 21 19:24:07 2023


#       File generated by GOLD software.
#

@<TRIPOS>MOLECULE
EN300-132581_i001|benzaldehydes|mol2|815|dock3
    22    23     1
SMALL
USER_CHARGES


@<TRIPOS>ATOM
      1 O1          33.0160  36.3119  35.5316 O.2            1 <1>                0.0000
      2 C2          32.5687  35.5514  36.3641 C.2            1 <1>                0.0000
      3 C3          31.6284  36.0438  37.3779 C.2            1 <1>                0.0000
      4 C4          31.0795  35.2996  38.4020 C.2            1 <1>                0.0000
      5 N5          30.2770  36.1301  39.0954 N.pl3          1 <1>                0.0000
      6 C6          29.4789  35.7881  40.2754 C.3            1 <1>                0.0000
      7 C7          28.0682  36.2838  40.0887 C.ar           1 <1>                0.0000
      8 C8          27.6661  36.8164  38.8731 C.ar           1 <1>                0.0000
      9 C9          26.3588  37.2600  38.7471 C.ar           1 <1>                0.0000
     10 C10         25.5055  37.1573  39.8297 C.ar           1 <1>                0.0000
     11 N11         25.9224  36.6452  40.9709 N.ar           1 <1>                0.0000
     12 C12         27.1571  36.2081  41.1249 C.ar           1 <1>                0.0000
     13 N13         30.3513  37.3840  38.4736 N.2            1 <1>                0.0000
     14 N14         31.1568  37.3010  37.4732 N.2            1 <1>                0.0000
     15 H15         32.8588  34.5111  36.3566 H              1 <1>                0.0000
     16 H16         31.2582  34.2545  38.6075 H              1 <1>                0.0000
     17 H17         29.4695  34.7060  40.4065 H              1 <1>                0.0000
     18 H18         29.9151  36.2570  41.1574 H              1 <1>                0.0000
     19 H19         28.3553  36.8843  38.0443 H              1 <1>                0.0000
     20 H20         26.0115  37.6806  37.8150 H              1 <1>                0.0000
     21 H21         24.4856  37.5010  39.7398 H              1 <1>                0.0000
     22 H22         27.4624  35.7946  42.0748 H              1 <1>                0.0000
@<TRIPOS>BOND
    1    1    2 2     
    2    2    3 1     
    3    2   15 1     
    4    3    4 2     
    5    3   14 1     
    6    4    5 1     
    7    4   16 1     
    8    5    6 1     
    9    5   13 1     
   10    6    7 1     
   11    6   17 1     
   12    6   18 1     
   13    7    8 ar    
   14    7   12 ar    
   15    8    9 ar    
   16    8   19 1     
   17    9   10 ar    
   18    9   20 1     
   19   10   11 ar    
   20   10   21 1     
   21   11   12 ar    
   22   12   22 1     
   23   13   14 2     
@<TRIPOS>SUBSTRUCTURE
      1 ****           1
@<TRIPOS>COMMENT
> <Gold.Version>
2022.2.0

> <Gold.Id.Protein>
1qkm|1qkm_protein|mol2

> <Gold.Protein.RotatedTorsions>
[  496  491  490  487 ] final  -60.77 input  -89.99 | X-H torsion

> <Gold.Protein.ActiveResidues>
 MET295  LEU298  THR299  LEU301  ALA302  GLU305  TRP335  MET336  LEU339  MET340 
 GLY342  LEU343  ARG346  PHE356  ILE373  ILE376  PHE377  LEU380  LYS471  GLY472 
 MET473  HIS475  LEU476  LEU477  ASN478  MET479  VAL484  VAL487 

> <Gold.Protein.RotatedAtoms>
   36.5030   34.7331   41.4735 H   0  0  0  0  0  0  0  0  0  0  0  0  # atno 496  bound_to 491 

> <Gold.Score>
     Score     S(PLP)   S(hbond)     S(cho)   S(metal)  DE(clash)   DE(tors)     intcor
     47.14     -42.00       0.00       1.82       0.00       0.00       0.16       0.00

> <Gold.PLP.Fitness>
47.1412

> <Gold.PLP.PLP>
-41.9961

> <Gold.PLP.part.hbond>
0.0000

> <Gold.PLP.part.metal>
0.0000

> <Gold.PLP.part.buried>
-3.3553

> <Gold.PLP.part.nonpolar>
-40.0165

> <Gold.PLP.part.repulsive>
0.2853

> <Gold.PLP.ligand.clash>
0.0000

> <Gold.PLP.ligand.torsion>
0.1613

> <Gold.PLP.Chemscore.Hbond>
0.0000

> <Gold.PLP.Chemscore.CHOScore>
1.8221

> <Gold.PLP.Chemscore.Metal>
0.0000

> <Gold.Chemscore.Hbonds>
donor molecule, donor type, donor heavy atom, donor atom, acceptor molecule, acceptor atom, score
      L1  C    10    21       P1  1131  0.84
      L1  C    12    22       P1   582  0.98

> <Gold.PLP.Chemscore.Internal.Correction>
0.0013

