#       Name:                EN300-132581_i001
#       Creating user name   aseyller
#       Creation time:       Fri Apr 21 19:24:13 2023


#       File generated by GOLD software.
#

@<TRIPOS>MOLECULE
EN300-132581_i001|benzaldehydes|mol2|815|dock12
    22    23     1
SMALL
USER_CHARGES


@<TRIPOS>ATOM
      1 O1          24.6100  36.6690  41.9118 O.2            1 <1>                0.0000
      2 C2          25.5089  37.3158  41.4168 C.2            1 <1>                0.0000
      3 C3          26.4537  36.6736  40.4952 C.2            1 <1>                0.0000
      4 C4          27.3551  35.6813  40.8216 C.2            1 <1>                0.0000
      5 N5          28.0222  35.3788  39.6911 N.pl3          1 <1>                0.0000
      6 C6          29.0820  34.3778  39.5454 C.3            1 <1>                0.0000
      7 C7          30.2578  34.9915  38.8299 C.ar           1 <1>                0.0000
      8 C8          31.3348  34.2063  38.4474 C.ar           1 <1>                0.0000
      9 C9          32.3944  34.8139  37.7917 C.ar           1 <1>                0.0000
     10 C10         32.3423  36.1725  37.5426 C.ar           1 <1>                0.0000
     11 N11         31.3016  36.8882  37.9210 N.ar           1 <1>                0.0000
     12 C12         30.2736  36.3429  38.5416 C.ar           1 <1>                0.0000
     13 N13         27.5091  36.2033  38.6805 N.2            1 <1>                0.0000
     14 N14         26.5867  36.9467  39.1838 N.2            1 <1>                0.0000
     15 H15         25.6115  38.3652  41.6508 H              1 <1>                0.0000
     16 H16         27.4982  35.2342  41.7943 H              1 <1>                0.0000
     17 H17         29.3955  34.0343  40.5313 H              1 <1>                0.0000
     18 H18         28.7065  33.5325  38.9686 H              1 <1>                0.0000
     19 H19         31.3481  33.1466  38.6557 H              1 <1>                0.0000
     20 H20         33.2497  34.2331  37.4796 H              1 <1>                0.0000
     21 H21         33.1639  36.6535  37.0326 H              1 <1>                0.0000
     22 H22         29.4385  36.9612  38.8361 H              1 <1>                0.0000
@<TRIPOS>BOND
    1    1    2 2     
    2    2    3 1     
    3    2   15 1     
    4    3    4 2     
    5    3   14 1     
    6    4    5 1     
    7    4   16 1     
    8    5    6 1     
    9    5   13 1     
   10    6    7 1     
   11    6   17 1     
   12    6   18 1     
   13    7    8 ar    
   14    7   12 ar    
   15    8    9 ar    
   16    8   19 1     
   17    9   10 ar    
   18    9   20 1     
   19   10   11 ar    
   20   10   21 1     
   21   11   12 ar    
   22   12   22 1     
   23   13   14 2     
@<TRIPOS>SUBSTRUCTURE
      1 ****           1
@<TRIPOS>COMMENT
> <Gold.Version>
2022.2.0

> <Gold.Id.Protein>
1qkm|1qkm_protein|mol2

> <Gold.Protein.RotatedTorsions>
[  496  491  490  487 ] final   85.20 input  -89.99 | X-H torsion

> <Gold.Protein.ActiveResidues>
 MET295  LEU298  THR299  LEU301  ALA302  GLU305  TRP335  MET336  LEU339  MET340 
 GLY342  LEU343  ARG346  PHE356  ILE373  ILE376  PHE377  LEU380  LYS471  GLY472 
 MET473  HIS475  LEU476  LEU477  ASN478  MET479  VAL484  VAL487 

> <Gold.Protein.RotatedAtoms>
   36.7758   33.0563   42.0798 H   0  0  0  0  0  0  0  0  0  0  0  0  # atno 496  bound_to 491 

> <Gold.Score>
     Score     S(PLP)   S(hbond)     S(cho)   S(metal)  DE(clash)   DE(tors)     intcor
     45.18     -41.68       0.69       0.99       0.00       0.00       0.77       0.00

> <Gold.PLP.Fitness>
45.1797

> <Gold.PLP.PLP>
-41.6835

> <Gold.PLP.part.hbond>
-0.5129

> <Gold.PLP.part.metal>
0.0000

> <Gold.PLP.part.buried>
-5.3941

> <Gold.PLP.part.nonpolar>
-37.2634

> <Gold.PLP.part.repulsive>
0.7552

> <Gold.PLP.ligand.clash>
0.0000

> <Gold.PLP.ligand.torsion>
0.7716

> <Gold.PLP.Chemscore.Hbond>
0.6880

> <Gold.PLP.Chemscore.CHOScore>
0.9916

> <Gold.PLP.Chemscore.Metal>
0.0000

> <Gold.Chemscore.Hbonds>
donor molecule, donor type, donor heavy atom, donor atom, acceptor molecule, acceptor atom, score
      P1  H  1258  1270       L1     1  0.69
      L1  C     4    16       P1   582  0.99

> <Gold.PLP.Chemscore.Internal.Correction>
0.0006

