#       Name:                EN300-132581_i001
#       Creating user name   aseyller
#       Creation time:       Fri Apr 21 19:24:13 2023


#       File generated by GOLD software.
#

@<TRIPOS>MOLECULE
EN300-132581_i001|benzaldehydes|mol2|815|dock13
    22    23     1
SMALL
USER_CHARGES


@<TRIPOS>ATOM
      1 O1          29.3624  40.2862  36.6923 O.2            1 <1>                0.0000
      2 C2          30.3982  39.6756  36.5322 C.2            1 <1>                0.0000
      3 C3          30.6125  38.3996  37.2252 C.2            1 <1>                0.0000
      4 C4          29.7142  37.7738  38.0649 C.2            1 <1>                0.0000
      5 N5          30.3041  36.6373  38.4832 N.pl3          1 <1>                0.0000
      6 C6          29.7315  35.6410  39.3920 C.3            1 <1>                0.0000
      7 C7          28.3157  36.0278  39.7338 C.ar           1 <1>                0.0000
      8 C8          27.9723  36.3550  41.0368 C.ar           1 <1>                0.0000
      9 C9          26.6579  36.7047  41.3048 C.ar           1 <1>                0.0000
     10 C10         25.7398  36.7156  40.2716 C.ar           1 <1>                0.0000
     11 N11         26.1021  36.3985  39.0441 N.ar           1 <1>                0.0000
     12 C12         27.3445  36.0666  38.7516 C.ar           1 <1>                0.0000
     13 N13         31.5697  36.5888  37.8830 N.2            1 <1>                0.0000
     14 N14         31.7171  37.6343  37.1469 N.2            1 <1>                0.0000
     15 H15         31.1610  40.0687  35.8764 H              1 <1>                0.0000
     16 H16         28.7297  38.1266  38.3347 H              1 <1>                0.0000
     17 H17         29.7346  34.6639  38.9086 H              1 <1>                0.0000
     18 H18         30.3264  35.5968  40.3042 H              1 <1>                0.0000
     19 H19         28.7113  36.3375  41.8243 H              1 <1>                0.0000
     20 H20         26.3550  36.9651  42.3083 H              1 <1>                0.0000
     21 H21         24.7138  36.9865  40.4721 H              1 <1>                0.0000
     22 H22         27.6039  35.8132  37.7342 H              1 <1>                0.0000
@<TRIPOS>BOND
    1    1    2 2     
    2    2    3 1     
    3    2   15 1     
    4    3    4 2     
    5    3   14 1     
    6    4    5 1     
    7    4   16 1     
    8    5    6 1     
    9    5   13 1     
   10    6    7 1     
   11    6   17 1     
   12    6   18 1     
   13    7    8 ar    
   14    7   12 ar    
   15    8    9 ar    
   16    8   19 1     
   17    9   10 ar    
   18    9   20 1     
   19   10   11 ar    
   20   10   21 1     
   21   11   12 ar    
   22   12   22 1     
   23   13   14 2     
@<TRIPOS>SUBSTRUCTURE
      1 ****           1
@<TRIPOS>COMMENT
> <Gold.Version>
2022.2.0

> <Gold.Id.Protein>
1qkm|1qkm_protein|mol2

> <Gold.Protein.RotatedTorsions>
[  496  491  490  487 ] final  -82.96 input  -89.99 | X-H torsion

> <Gold.Protein.ActiveResidues>
 MET295  LEU298  THR299  LEU301  ALA302  GLU305  TRP335  MET336  LEU339  MET340 
 GLY342  LEU343  ARG346  PHE356  ILE373  ILE376  PHE377  LEU380  LYS471  GLY472 
 MET473  HIS475  LEU476  LEU477  ASN478  MET479  VAL484  VAL487 

> <Gold.Protein.RotatedAtoms>
   36.6927   34.6933   41.1667 H   0  0  0  0  0  0  0  0  0  0  0  0  # atno 496  bound_to 491 

> <Gold.Score>
     Score     S(PLP)   S(hbond)     S(cho)   S(metal)  DE(clash)   DE(tors)     intcor
     46.24     -43.33       0.00       0.99       0.00       0.00       0.03       0.00

> <Gold.PLP.Fitness>
46.2416

> <Gold.PLP.PLP>
-43.3292

> <Gold.PLP.part.hbond>
0.0000

> <Gold.PLP.part.metal>
0.0000

> <Gold.PLP.part.buried>
-5.2605

> <Gold.PLP.part.nonpolar>
-38.9190

> <Gold.PLP.part.repulsive>
0.1044

> <Gold.PLP.ligand.clash>
0.0000

> <Gold.PLP.ligand.torsion>
0.0335

> <Gold.PLP.Chemscore.Hbond>
0.0000

> <Gold.PLP.Chemscore.CHOScore>
0.9929

> <Gold.PLP.Chemscore.Metal>
0.0000

> <Gold.Chemscore.Hbonds>
donor molecule, donor type, donor heavy atom, donor atom, acceptor molecule, acceptor atom, score
      L1  C    10    21       P1  1131  0.99

> <Gold.PLP.Chemscore.Internal.Correction>
0.0006

