#       Name:                EN300-132581_i001
#       Creating user name   aseyller
#       Creation time:       Fri Apr 21 19:24:10 2023


#       File generated by GOLD software.
#

@<TRIPOS>MOLECULE
EN300-132581_i001|benzaldehydes|mol2|815|dock9
    22    23     1
SMALL
USER_CHARGES


@<TRIPOS>ATOM
      1 O1          25.9696  36.7138  40.6715 O.2            1 <1>                0.0000
      2 C2          26.0523  37.1502  39.5428 C.2            1 <1>                0.0000
      3 C3          27.3418  37.1328  38.8418 C.2            1 <1>                0.0000
      4 C4          28.5192  36.6009  39.3262 C.2            1 <1>                0.0000
      5 N5          29.4509  36.7934  38.3725 N.pl3          1 <1>                0.0000
      6 C6          30.8588  36.3934  38.4356 C.3            1 <1>                0.0000
      7 C7          31.5575  36.8129  37.1680 C.ar           1 <1>                0.0000
      8 C8          32.3388  35.9086  36.4646 C.ar           1 <1>                0.0000
      9 C9          32.9627  36.3388  35.3038 C.ar           1 <1>                0.0000
     10 C10         32.7864  37.6455  34.8889 C.ar           1 <1>                0.0000
     11 N11         32.0360  38.4781  35.5833 N.ar           1 <1>                0.0000
     12 C12         31.4229  38.1020  36.6887 C.ar           1 <1>                0.0000
     13 N13         28.8169  37.4487  37.3081 N.2            1 <1>                0.0000
     14 N14         27.5792  37.6277  37.6127 N.2            1 <1>                0.0000
     15 H15         25.1762  37.5476  39.0518 H              1 <1>                0.0000
     16 H16         28.6655  36.1233  40.2838 H              1 <1>                0.0000
     17 H17         31.3355  36.8748  39.2896 H              1 <1>                0.0000
     18 H18         30.9244  35.3110  38.5455 H              1 <1>                0.0000
     19 H19         32.4587  34.8934  36.8131 H              1 <1>                0.0000
     20 H20         33.5789  35.6615  34.7310 H              1 <1>                0.0000
     21 H21         33.2694  37.9885  33.9859 H              1 <1>                0.0000
     22 H22         30.8161  38.8123  37.2307 H              1 <1>                0.0000
@<TRIPOS>BOND
    1    1    2 2     
    2    2    3 1     
    3    2   15 1     
    4    3    4 2     
    5    3   14 1     
    6    4    5 1     
    7    4   16 1     
    8    5    6 1     
    9    5   13 1     
   10    6    7 1     
   11    6   17 1     
   12    6   18 1     
   13    7    8 ar    
   14    7   12 ar    
   15    8    9 ar    
   16    8   19 1     
   17    9   10 ar    
   18    9   20 1     
   19   10   11 ar    
   20   10   21 1     
   21   11   12 ar    
   22   12   22 1     
   23   13   14 2     
@<TRIPOS>SUBSTRUCTURE
      1 ****           1
@<TRIPOS>COMMENT
> <Gold.Version>
2022.2.0

> <Gold.Id.Protein>
1qkm|1qkm_protein|mol2

> <Gold.Protein.RotatedTorsions>
[  496  491  490  487 ] final -123.79 input  -89.99 | X-H torsion

> <Gold.Protein.ActiveResidues>
 MET295  LEU298  THR299  LEU301  ALA302  GLU305  TRP335  MET336  LEU339  MET340 
 GLY342  LEU343  ARG346  PHE356  ILE373  ILE376  PHE377  LEU380  LYS471  GLY472 
 MET473  HIS475  LEU476  LEU477  ASN478  MET479  VAL484  VAL487 

> <Gold.Protein.RotatedAtoms>
   37.0569   34.3065   40.7785 H   0  0  0  0  0  0  0  0  0  0  0  0  # atno 496  bound_to 491 

> <Gold.Score>
     Score     S(PLP)   S(hbond)     S(cho)   S(metal)  DE(clash)   DE(tors)     intcor
     43.78     -41.00       0.00       1.00       0.00       0.00       0.11       0.00

> <Gold.PLP.Fitness>
43.7797

> <Gold.PLP.PLP>
-40.9972

> <Gold.PLP.part.hbond>
0.0000

> <Gold.PLP.part.metal>
0.0000

> <Gold.PLP.part.buried>
-4.9332

> <Gold.PLP.part.nonpolar>
-36.1380

> <Gold.PLP.part.repulsive>
0.1675

> <Gold.PLP.ligand.clash>
0.0000

> <Gold.PLP.ligand.torsion>
0.1090

> <Gold.PLP.Chemscore.Hbond>
0.0000

> <Gold.PLP.Chemscore.CHOScore>
1.0000

> <Gold.PLP.Chemscore.Metal>
0.0000

> <Gold.Chemscore.Hbonds>
donor molecule, donor type, donor heavy atom, donor atom, acceptor molecule, acceptor atom, score
      L1  C    10    21       P1  3229  1.00

> <Gold.PLP.Chemscore.Internal.Correction>
0.0006

