#       Name:                EN300-132581_i001
#       Creating user name   aseyller
#       Creation time:       Fri Apr 21 19:24:08 2023


#       File generated by GOLD software.
#

@<TRIPOS>MOLECULE
EN300-132581_i001|benzaldehydes|mol2|815|dock5
    22    23     1
SMALL
USER_CHARGES


@<TRIPOS>ATOM
      1 O1          32.7954  37.6399  34.9445 O.2            1 <1>                0.0000
      2 C2          32.8073  36.8475  35.8628 C.2            1 <1>                0.0000
      3 C3          31.6891  36.8082  36.8127 C.2            1 <1>                0.0000
      4 C4          31.5724  35.9547  37.8907 C.2            1 <1>                0.0000
      5 N5          30.4048  36.2515  38.4933 N.pl3          1 <1>                0.0000
      6 C6          29.8507  35.6064  39.6863 C.3            1 <1>                0.0000
      7 C7          28.4108  36.0173  39.8565 C.ar           1 <1>                0.0000
      8 C8          27.9178  36.3457  41.1103 C.ar           1 <1>                0.0000
      9 C9          26.5869  36.7179  41.2193 C.ar           1 <1>                0.0000
     10 C10         25.8011  36.7491  40.0826 C.ar           1 <1>                0.0000
     11 N11         26.3038  36.4302  38.9061 N.ar           1 <1>                0.0000
     12 C12         27.5665  36.0771  38.7642 C.ar           1 <1>                0.0000
     13 N13         29.8212  37.2953  37.7624 N.2            1 <1>                0.0000
     14 N14         30.6025  37.6023  36.7867 N.2            1 <1>                0.0000
     15 H15         33.6386  36.1678  35.9789 H              1 <1>                0.0000
     16 H16         32.2795  35.1961  38.1923 H              1 <1>                0.0000
     17 H17         29.9087  34.5237  39.5741 H              1 <1>                0.0000
     18 H18         30.4218  35.9119  40.5629 H              1 <1>                0.0000
     19 H19         28.5556  36.3120  41.9813 H              1 <1>                0.0000
     20 H20         26.1693  36.9799  42.1802 H              1 <1>                0.0000
     21 H21         24.7631  37.0376  40.1591 H              1 <1>                0.0000
     22 H22         27.9428  35.8230  37.7843 H              1 <1>                0.0000
@<TRIPOS>BOND
    1    1    2 2     
    2    2    3 1     
    3    2   15 1     
    4    3    4 2     
    5    3   14 1     
    6    4    5 1     
    7    4   16 1     
    8    5    6 1     
    9    5   13 1     
   10    6    7 1     
   11    6   17 1     
   12    6   18 1     
   13    7    8 ar    
   14    7   12 ar    
   15    8    9 ar    
   16    8   19 1     
   17    9   10 ar    
   18    9   20 1     
   19   10   11 ar    
   20   10   21 1     
   21   11   12 ar    
   22   12   22 1     
   23   13   14 2     
@<TRIPOS>SUBSTRUCTURE
      1 ****           1
@<TRIPOS>COMMENT
> <Gold.Version>
2022.2.0

> <Gold.Id.Protein>
1qkm|1qkm_protein|mol2

> <Gold.Protein.RotatedTorsions>
[  496  491  490  487 ] final -124.66 input  -89.99 | X-H torsion

> <Gold.Protein.ActiveResidues>
 MET295  LEU298  THR299  LEU301  ALA302  GLU305  TRP335  MET336  LEU339  MET340 
 GLY342  LEU343  ARG346  PHE356  ILE373  ILE376  PHE377  LEU380  LYS471  GLY472 
 MET473  HIS475  LEU476  LEU477  ASN478  MET479  VAL484  VAL487 

> <Gold.Protein.RotatedAtoms>
   37.0638   34.2947   40.7739 H   0  0  0  0  0  0  0  0  0  0  0  0  # atno 496  bound_to 491 

> <Gold.Score>
     Score     S(PLP)   S(hbond)     S(cho)   S(metal)  DE(clash)   DE(tors)     intcor
     44.80     -42.54       0.00       1.00       0.00       0.00       0.37       0.00

> <Gold.PLP.Fitness>
44.7962

> <Gold.PLP.PLP>
-42.5438

> <Gold.PLP.part.hbond>
0.0000

> <Gold.PLP.part.metal>
0.0000

> <Gold.PLP.part.buried>
-4.9214

> <Gold.PLP.part.nonpolar>
-38.1582

> <Gold.PLP.part.repulsive>
0.1949

> <Gold.PLP.ligand.clash>
0.0000

> <Gold.PLP.ligand.torsion>
0.3724

> <Gold.PLP.Chemscore.Hbond>
0.0000

> <Gold.PLP.Chemscore.CHOScore>
0.9988

> <Gold.PLP.Chemscore.Metal>
0.0000

> <Gold.Chemscore.Hbonds>
donor molecule, donor type, donor heavy atom, donor atom, acceptor molecule, acceptor atom, score
      L1  C    10    21       P1  1131  1.00

> <Gold.PLP.Chemscore.Internal.Correction>
0.0010

