#       Name:                EN300-132581_i001
#       Creating user name   aseyller
#       Creation time:       Fri Apr 21 19:24:11 2023


#       File generated by GOLD software.
#

@<TRIPOS>MOLECULE
EN300-132581_i001|benzaldehydes|mol2|815|dock10
    22    23     1
SMALL
USER_CHARGES


@<TRIPOS>ATOM
      1 O1          33.6020  36.9660  34.8686 O.2            1 <1>                0.0000
      2 C2          33.3511  36.0929  35.6724 C.2            1 <1>                0.0000
      3 C3          32.2115  36.2413  36.5854 C.2            1 <1>                0.0000
      4 C4          31.2808  37.2596  36.5594 C.2            1 <1>                0.0000
      5 N5          30.4137  37.0157  37.5609 N.pl3          1 <1>                0.0000
      6 C6          29.2498  37.8281  37.9238 C.3            1 <1>                0.0000
      7 C7          28.4340  37.1016  38.9619 C.ar           1 <1>                0.0000
      8 C8          27.0944  36.8247  38.7348 C.ar           1 <1>                0.0000
      9 C9          26.3832  36.1543  39.7179 C.ar           1 <1>                0.0000
     10 C10         27.0285  35.7867  40.8837 C.ar           1 <1>                0.0000
     11 N11         28.3041  36.0666  41.0655 N.ar           1 <1>                0.0000
     12 C12         29.0130  36.6978  40.1499 C.ar           1 <1>                0.0000
     13 N13         30.8363  35.8364  38.1894 N.2            1 <1>                0.0000
     14 N14         31.8899  35.4043  37.5894 N.2            1 <1>                0.0000
     15 H15         33.9636  35.2042  35.7133 H              1 <1>                0.0000
     16 H16         31.2531  38.0908  35.8703 H              1 <1>                0.0000
     17 H17         29.5851  38.7832  38.3283 H              1 <1>                0.0000
     18 H18         28.6385  38.0031  37.0385 H              1 <1>                0.0000
     19 H19         26.6163  37.1246  37.8139 H              1 <1>                0.0000
     20 H20         25.3381  35.9224  39.5749 H              1 <1>                0.0000
     21 H21         26.4815  35.2644  41.6547 H              1 <1>                0.0000
     22 H22         30.0559  36.9095  40.3344 H              1 <1>                0.0000
@<TRIPOS>BOND
    1    1    2 2     
    2    2    3 1     
    3    2   15 1     
    4    3    4 2     
    5    3   14 1     
    6    4    5 1     
    7    4   16 1     
    8    5    6 1     
    9    5   13 1     
   10    6    7 1     
   11    6   17 1     
   12    6   18 1     
   13    7    8 ar    
   14    7   12 ar    
   15    8    9 ar    
   16    8   19 1     
   17    9   10 ar    
   18    9   20 1     
   19   10   11 ar    
   20   10   21 1     
   21   11   12 ar    
   22   12   22 1     
   23   13   14 2     
@<TRIPOS>SUBSTRUCTURE
      1 ****           1
@<TRIPOS>COMMENT
> <Gold.Version>
2022.2.0

> <Gold.Id.Protein>
1qkm|1qkm_protein|mol2

> <Gold.Protein.RotatedTorsions>
[  496  491  490  487 ] final  123.86 input  -89.99 | X-H torsion

> <Gold.Protein.ActiveResidues>
 MET295  LEU298  THR299  LEU301  ALA302  GLU305  TRP335  MET336  LEU339  MET340 
 GLY342  LEU343  ARG346  PHE356  ILE373  ILE376  PHE377  LEU380  LYS471  GLY472 
 MET473  HIS475  LEU476  LEU477  ASN478  MET479  VAL484  VAL487 

> <Gold.Protein.RotatedAtoms>
   37.1097   32.9508   41.5628 H   0  0  0  0  0  0  0  0  0  0  0  0  # atno 496  bound_to 491 

> <Gold.Score>
     Score     S(PLP)   S(hbond)     S(cho)   S(metal)  DE(clash)   DE(tors)     intcor
     43.56     -40.73       0.00       1.00       0.00       0.00       0.09       0.00

> <Gold.PLP.Fitness>
43.5608

> <Gold.PLP.PLP>
-40.7341

> <Gold.PLP.part.hbond>
0.0000

> <Gold.PLP.part.metal>
0.0000

> <Gold.PLP.part.buried>
-5.3055

> <Gold.PLP.part.nonpolar>
-35.6793

> <Gold.PLP.part.repulsive>
0.3627

> <Gold.PLP.ligand.clash>
0.0000

> <Gold.PLP.ligand.torsion>
0.0869

> <Gold.PLP.Chemscore.Hbond>
0.0000

> <Gold.PLP.Chemscore.CHOScore>
1.0000

> <Gold.PLP.Chemscore.Metal>
0.0000

> <Gold.Chemscore.Hbonds>
donor molecule, donor type, donor heavy atom, donor atom, acceptor molecule, acceptor atom, score
      L1  C    10    21       P1   582  1.00

> <Gold.PLP.Chemscore.Internal.Correction>
0.0006

