#       Name:                EN300-132581_i001
#       Creating user name   aseyller
#       Creation time:       Fri Apr 21 19:24:12 2023


#       File generated by GOLD software.
#

@<TRIPOS>MOLECULE
EN300-132581_i001|benzaldehydes|mol2|815|dock11
    22    23     1
SMALL
USER_CHARGES


@<TRIPOS>ATOM
      1 O1          29.6989  40.3522  36.4972 O.2            1 <1>                0.0000
      2 C2          30.4647  39.4725  36.1641 C.2            1 <1>                0.0000
      3 C3          30.5053  38.2118  36.9148 C.2            1 <1>                0.0000
      4 C4          29.9379  37.9881  38.1525 C.2            1 <1>                0.0000
      5 N5          30.2076  36.7084  38.4752 N.pl3          1 <1>                0.0000
      6 C6          29.8058  36.0151  39.7016 C.3            1 <1>                0.0000
      7 C7          28.3396  36.2533  39.9559 C.ar           1 <1>                0.0000
      8 C8          27.4337  36.2398  38.9061 C.ar           1 <1>                0.0000
      9 C9          26.0948  36.4638  39.1871 C.ar           1 <1>                0.0000
     10 C10         25.7100  36.6914  40.4951 C.ar           1 <1>                0.0000
     11 N11         26.5994  36.6971  41.4685 N.ar           1 <1>                0.0000
     12 C12         27.8802  36.4821  41.2389 C.ar           1 <1>                0.0000
     13 N13         30.9453  36.1661  37.4140 N.2            1 <1>                0.0000
     14 N14         31.0976  37.0720  36.5124 N.2            1 <1>                0.0000
     15 H15         31.1135  39.6150  35.3125 H              1 <1>                0.0000
     16 H16         29.3852  38.7006  38.7470 H              1 <1>                0.0000
     17 H17         29.9863  34.9459  39.5904 H              1 <1>                0.0000
     18 H18         30.3868  36.3963  40.5414 H              1 <1>                0.0000
     19 H19         27.7634  36.0594  37.8936 H              1 <1>                0.0000
     20 H20         25.3616  36.4607  38.3941 H              1 <1>                0.0000
     21 H21         24.6690  36.8672  40.7223 H              1 <1>                0.0000
     22 H22         28.5794  36.4941  42.0619 H              1 <1>                0.0000
@<TRIPOS>BOND
    1    1    2 2     
    2    2    3 1     
    3    2   15 1     
    4    3    4 2     
    5    3   14 1     
    6    4    5 1     
    7    4   16 1     
    8    5    6 1     
    9    5   13 1     
   10    6    7 1     
   11    6   17 1     
   12    6   18 1     
   13    7    8 ar    
   14    7   12 ar    
   15    8    9 ar    
   16    8   19 1     
   17    9   10 ar    
   18    9   20 1     
   19   10   11 ar    
   20   10   21 1     
   21   11   12 ar    
   22   12   22 1     
   23   13   14 2     
@<TRIPOS>SUBSTRUCTURE
      1 ****           1
@<TRIPOS>COMMENT
> <Gold.Version>
2022.2.0

> <Gold.Id.Protein>
1qkm|1qkm_protein|mol2

> <Gold.Protein.RotatedTorsions>
[  496  491  490  487 ] final   68.16 input  -89.99 | X-H torsion

> <Gold.Protein.ActiveResidues>
 MET295  LEU298  THR299  LEU301  ALA302  GLU305  TRP335  MET336  LEU339  MET340 
 GLY342  LEU343  ARG346  PHE356  ILE373  ILE376  PHE377  LEU380  LYS471  GLY472 
 MET473  HIS475  LEU476  LEU477  ASN478  MET479  VAL484  VAL487 

> <Gold.Protein.RotatedAtoms>
   36.6212   33.2204   42.2449 H   0  0  0  0  0  0  0  0  0  0  0  0  # atno 496  bound_to 491 

> <Gold.Score>
     Score     S(PLP)   S(hbond)     S(cho)   S(metal)  DE(clash)   DE(tors)     intcor
     45.60     -43.47       0.00       1.00       0.00       0.00       0.44       0.00

> <Gold.PLP.Fitness>
45.5952

> <Gold.PLP.PLP>
-43.4727

> <Gold.PLP.part.hbond>
0.0000

> <Gold.PLP.part.metal>
0.0000

> <Gold.PLP.part.buried>
-4.4224

> <Gold.PLP.part.nonpolar>
-40.3339

> <Gold.PLP.part.repulsive>
0.1577

> <Gold.PLP.ligand.clash>
0.0000

> <Gold.PLP.ligand.torsion>
0.4391

> <Gold.PLP.Chemscore.Hbond>
0.0000

> <Gold.PLP.Chemscore.CHOScore>
1.0000

> <Gold.PLP.Chemscore.Metal>
0.0000

> <Gold.Chemscore.Hbonds>
donor molecule, donor type, donor heavy atom, donor atom, acceptor molecule, acceptor atom, score
      L1  C    10    21       P1  1131  1.00

> <Gold.PLP.Chemscore.Internal.Correction>
0.0006

