#       Name:                EN300-132581_i001
#       Creating user name   aseyller
#       Creation time:       Fri Apr 21 19:24:17 2023


#       File generated by GOLD software.
#

@<TRIPOS>MOLECULE
EN300-132581_i001|benzaldehydes|mol2|815|dock18
    22    23     1
SMALL
USER_CHARGES


@<TRIPOS>ATOM
      1 O1          29.9810  40.5901  36.0981 O.2            1 <1>                0.0000
      2 C2          30.5864  39.6530  36.5742 C.2            1 <1>                0.0000
      3 C3          29.8520  38.5427  37.1925 C.2            1 <1>                0.0000
      4 C4          28.4844  38.4714  37.3613 C.2            1 <1>                0.0000
      5 N5          28.2310  37.2943  37.9654 N.pl3          1 <1>                0.0000
      6 C6          26.9152  36.7762  38.3483 C.3            1 <1>                0.0000
      7 C7          26.7597  36.8567  39.8450 C.ar           1 <1>                0.0000
      8 C8          27.8546  36.6716  40.6756 C.ar           1 <1>                0.0000
      9 C9          27.6644  36.7545  42.0463 C.ar           1 <1>                0.0000
     10 C10         26.3988  37.0172  42.5360 C.ar           1 <1>                0.0000
     11 N11         25.3804  37.1878  41.7161 N.ar           1 <1>                0.0000
     12 C12         25.5254  37.1216  40.4069 C.ar           1 <1>                0.0000
     13 N13         29.4655  36.6591  38.1572 N.2            1 <1>                0.0000
     14 N14         30.3954  37.4151  37.6876 N.2            1 <1>                0.0000
     15 H15         31.6657  39.6334  36.5392 H              1 <1>                0.0000
     16 H16         27.7584  39.2148  37.0668 H              1 <1>                0.0000
     17 H17         26.1371  37.3710  37.8696 H              1 <1>                0.0000
     18 H18         26.8266  35.7378  38.0290 H              1 <1>                0.0000
     19 H19         28.8322  36.4673  40.2645 H              1 <1>                0.0000
     20 H20         28.4946  36.6154  42.7229 H              1 <1>                0.0000
     21 H21         26.2422  37.0830  43.6026 H              1 <1>                0.0000
     22 H22         24.6677  37.2671  39.7669 H              1 <1>                0.0000
@<TRIPOS>BOND
    1    1    2 2     
    2    2    3 1     
    3    2   15 1     
    4    3    4 2     
    5    3   14 1     
    6    4    5 1     
    7    4   16 1     
    8    5    6 1     
    9    5   13 1     
   10    6    7 1     
   11    6   17 1     
   12    6   18 1     
   13    7    8 ar    
   14    7   12 ar    
   15    8    9 ar    
   16    8   19 1     
   17    9   10 ar    
   18    9   20 1     
   19   10   11 ar    
   20   10   21 1     
   21   11   12 ar    
   22   12   22 1     
   23   13   14 2     
@<TRIPOS>SUBSTRUCTURE
      1 ****           1
@<TRIPOS>COMMENT
> <Gold.Version>
2022.2.0

> <Gold.Id.Protein>
1qkm|1qkm_protein|mol2

> <Gold.Protein.RotatedTorsions>
[  496  491  490  487 ] final  -74.41 input  -89.99 | X-H torsion

> <Gold.Protein.ActiveResidues>
 MET295  LEU298  THR299  LEU301  ALA302  GLU305  TRP335  MET336  LEU339  MET340 
 GLY342  LEU343  ARG346  PHE356  ILE373  ILE376  PHE377  LEU380  LYS471  GLY472 
 MET473  HIS475  LEU476  LEU477  ASN478  MET479  VAL484  VAL487 

> <Gold.Protein.RotatedAtoms>
   36.6163   34.7243   41.2805 H   0  0  0  0  0  0  0  0  0  0  0  0  # atno 496  bound_to 491 

> <Gold.Score>
     Score     S(PLP)   S(hbond)     S(cho)   S(metal)  DE(clash)   DE(tors)     intcor
     44.61     -39.74       0.14       1.83       0.00       0.00       0.51       0.00

> <Gold.PLP.Fitness>
44.6126

> <Gold.PLP.PLP>
-39.7433

> <Gold.PLP.part.hbond>
-1.0000

> <Gold.PLP.part.metal>
0.0000

> <Gold.PLP.part.buried>
-1.0043

> <Gold.PLP.part.nonpolar>
-36.6601

> <Gold.PLP.part.repulsive>
0.2461

> <Gold.PLP.ligand.clash>
0.0000

> <Gold.PLP.ligand.torsion>
0.5137

> <Gold.PLP.Chemscore.Hbond>
0.1357

> <Gold.PLP.Chemscore.CHOScore>
1.8297

> <Gold.PLP.Chemscore.Metal>
0.0000

> <Gold.Chemscore.Hbonds>
donor molecule, donor type, donor heavy atom, donor atom, acceptor molecule, acceptor atom, score
      P1  H  1258  1270       L1    11  0.14
      L1  C    10    21       P1   582  0.24
      L1  C    10    21       P1  1408  0.65
      L1  C    12    22       P1  1131  0.93

> <Gold.PLP.Chemscore.Internal.Correction>
0.0002

