#       Name:                EN300-132581_i001
#       Creating user name   aseyller
#       Creation time:       Fri Apr 21 19:24:16 2023


#       File generated by GOLD software.
#

@<TRIPOS>MOLECULE
EN300-132581_i001|benzaldehydes|mol2|815|dock16
    22    23     1
SMALL
USER_CHARGES


@<TRIPOS>ATOM
      1 O1          33.2700  35.2598  36.6766 O.2            1 <1>                0.0000
      2 C2          32.9990  35.9087  37.6649 C.2            1 <1>                0.0000
      3 C3          31.6048  36.0202  38.1101 C.2            1 <1>                0.0000
      4 C4          30.7891  34.9730  38.4863 C.2            1 <1>                0.0000
      5 N5          29.5999  35.5106  38.8201 N.pl3          1 <1>                0.0000
      6 C6          28.4147  34.7854  39.2846 C.3            1 <1>                0.0000
      7 C7          27.3580  35.7713  39.7117 C.ar           1 <1>                0.0000
      8 C8          26.7453  36.5926  38.7774 C.ar           1 <1>                0.0000
      9 C9          25.7786  37.4843  39.2158 C.ar           1 <1>                0.0000
     10 C10         25.4599  37.5248  40.5602 C.ar           1 <1>                0.0000
     11 N11         26.0634  36.7286  41.4207 N.ar           1 <1>                0.0000
     12 C12         26.9832  35.8642  41.0385 C.ar           1 <1>                0.0000
     13 N13         29.7123  36.8958  38.6390 N.2            1 <1>                0.0000
     14 N14         30.9024  37.1625  38.2275 N.2            1 <1>                0.0000
     15 H15         33.7841  36.4008  38.2199 H              1 <1>                0.0000
     16 H16         31.0526  33.9258  38.5087 H              1 <1>                0.0000
     17 H17         28.0277  34.1656  38.4757 H              1 <1>                0.0000
     18 H18         28.6842  34.1526  40.1302 H              1 <1>                0.0000
     19 H19         27.0150  36.5390  37.7329 H              1 <1>                0.0000
     20 H20         25.2811  38.1392  38.5159 H              1 <1>                0.0000
     21 H21         24.7083  38.2169  40.9099 H              1 <1>                0.0000
     22 H22         27.4556  35.2280  41.7723 H              1 <1>                0.0000
@<TRIPOS>BOND
    1    1    2 2     
    2    2    3 1     
    3    2   15 1     
    4    3    4 2     
    5    3   14 1     
    6    4    5 1     
    7    4   16 1     
    8    5    6 1     
    9    5   13 1     
   10    6    7 1     
   11    6   17 1     
   12    6   18 1     
   13    7    8 ar    
   14    7   12 ar    
   15    8    9 ar    
   16    8   19 1     
   17    9   10 ar    
   18    9   20 1     
   19   10   11 ar    
   20   10   21 1     
   21   11   12 ar    
   22   12   22 1     
   23   13   14 2     
@<TRIPOS>SUBSTRUCTURE
      1 ****           1
@<TRIPOS>COMMENT
> <Gold.Version>
2022.2.0

> <Gold.Id.Protein>
1qkm|1qkm_protein|mol2

> <Gold.Protein.RotatedTorsions>
[  496  491  490  487 ] final   -7.00 input  -89.99 | X-H torsion

> <Gold.Protein.ActiveResidues>
 MET295  LEU298  THR299  LEU301  ALA302  GLU305  TRP335  MET336  LEU339  MET340 
 GLY342  LEU343  ARG346  PHE356  ILE373  ILE376  PHE377  LEU380  LYS471  GLY472 
 MET473  HIS475  LEU476  LEU477  ASN478  MET479  VAL484  VAL487 

> <Gold.Protein.RotatedAtoms>
   36.2598   34.3102   42.1733 H   0  0  0  0  0  0  0  0  0  0  0  0  # atno 496  bound_to 491 

> <Gold.Score>
     Score     S(PLP)   S(hbond)     S(cho)   S(metal)  DE(clash)   DE(tors)     intcor
     45.23     -44.28       0.00       0.76       0.00       0.00       0.66       0.00

> <Gold.PLP.Fitness>
45.2288

> <Gold.PLP.PLP>
-44.2837

> <Gold.PLP.part.hbond>
0.0000

> <Gold.PLP.part.metal>
0.0000

> <Gold.PLP.part.buried>
-5.1947

> <Gold.PLP.part.nonpolar>
-39.8537

> <Gold.PLP.part.repulsive>
0.2558

> <Gold.PLP.ligand.clash>
0.0000

> <Gold.PLP.ligand.torsion>
0.6604

> <Gold.PLP.Chemscore.Hbond>
0.0000

> <Gold.PLP.Chemscore.CHOScore>
0.7553

> <Gold.PLP.Chemscore.Metal>
0.0000

> <Gold.Chemscore.Hbonds>
donor molecule, donor type, donor heavy atom, donor atom, acceptor molecule, acceptor atom, score
      L1  C    12    22       P1   582  0.76

> <Gold.PLP.Chemscore.Internal.Correction>
0.0002

