#       Name:                EN300-132581_i001
#       Creating user name   aseyller
#       Creation time:       Fri Apr 21 19:24:14 2023


#       File generated by GOLD software.
#

@<TRIPOS>MOLECULE
EN300-132581_i001|benzaldehydes|mol2|815|dock14
    22    23     1
SMALL
USER_CHARGES


@<TRIPOS>ATOM
      1 O1          32.5813  37.4576  34.3739 O.2            1 <1>                0.0000
      2 C2          31.6700  38.2081  34.6525 C.2            1 <1>                0.0000
      3 C3          30.9958  38.0935  35.9512 C.2            1 <1>                0.0000
      4 C4          31.0134  36.9886  36.7775 C.2            1 <1>                0.0000
      5 N5          30.2744  37.3036  37.8589 N.pl3          1 <1>                0.0000
      6 C6          30.0055  36.4414  39.0125 C.3            1 <1>                0.0000
      7 C7          28.5435  36.5211  39.3691 C.ar           1 <1>                0.0000
      8 C8          28.0861  36.0110  40.5747 C.ar           1 <1>                0.0000
      9 C9          26.7329  36.1064  40.8606 C.ar           1 <1>                0.0000
     10 C10         25.8907  36.7025  39.9409 C.ar           1 <1>                0.0000
     11 N11         26.3609  37.1767  38.8040 N.ar           1 <1>                0.0000
     12 C12         27.6427  37.1085  38.5014 C.ar           1 <1>                0.0000
     13 N13         29.8124  38.6134  37.6709 N.2            1 <1>                0.0000
     14 N14         30.2581  39.0501  36.5451 N.2            1 <1>                0.0000
     15 H15         31.3576  38.9637  33.9468 H              1 <1>                0.0000
     16 H16         31.5206  36.0531  36.5931 H              1 <1>                0.0000
     17 H17         30.2634  35.4117  38.7645 H              1 <1>                0.0000
     18 H18         30.6050  36.7719  39.8607 H              1 <1>                0.0000
     19 H19         28.7678  35.5501  41.2743 H              1 <1>                0.0000
     20 H20         26.3418  35.7196  41.7900 H              1 <1>                0.0000
     21 H21         24.8352  36.7804  40.1559 H              1 <1>                0.0000
     22 H22         27.9911  37.5082  37.5605 H              1 <1>                0.0000
@<TRIPOS>BOND
    1    1    2 2     
    2    2    3 1     
    3    2   15 1     
    4    3    4 2     
    5    3   14 1     
    6    4    5 1     
    7    4   16 1     
    8    5    6 1     
    9    5   13 1     
   10    6    7 1     
   11    6   17 1     
   12    6   18 1     
   13    7    8 ar    
   14    7   12 ar    
   15    8    9 ar    
   16    8   19 1     
   17    9   10 ar    
   18    9   20 1     
   19   10   11 ar    
   20   10   21 1     
   21   11   12 ar    
   22   12   22 1     
   23   13   14 2     
@<TRIPOS>SUBSTRUCTURE
      1 ****           1
@<TRIPOS>COMMENT
> <Gold.Version>
2022.2.0

> <Gold.Id.Protein>
1qkm|1qkm_protein|mol2

> <Gold.Protein.RotatedTorsions>
[  496  491  490  487 ] final  -46.08 input  -89.99 | X-H torsion

> <Gold.Protein.ActiveResidues>
 MET295  LEU298  THR299  LEU301  ALA302  GLU305  TRP335  MET336  LEU339  MET340 
 GLY342  LEU343  ARG346  PHE356  ILE373  ILE376  PHE377  LEU380  LYS471  GLY472 
 MET473  HIS475  LEU476  LEU477  ASN478  MET479  VAL484  VAL487 

> <Gold.Protein.RotatedAtoms>
   36.3991   34.6860   41.6861 H   0  0  0  0  0  0  0  0  0  0  0  0  # atno 496  bound_to 491 

> <Gold.Score>
     Score     S(PLP)   S(hbond)     S(cho)   S(metal)  DE(clash)   DE(tors)     intcor
     43.62     -41.45       0.00       1.00       0.00       0.00       0.41       0.00

> <Gold.PLP.Fitness>
43.6245

> <Gold.PLP.PLP>
-41.4519

> <Gold.PLP.part.hbond>
0.0000

> <Gold.PLP.part.metal>
0.0000

> <Gold.PLP.part.buried>
-5.9041

> <Gold.PLP.part.nonpolar>
-36.2672

> <Gold.PLP.part.repulsive>
0.2136

> <Gold.PLP.ligand.clash>
0.0000

> <Gold.PLP.ligand.torsion>
0.4140

> <Gold.PLP.Chemscore.Hbond>
0.0000

> <Gold.PLP.Chemscore.CHOScore>
1.0000

> <Gold.PLP.Chemscore.Metal>
0.0000

> <Gold.Chemscore.Hbonds>
donor molecule, donor type, donor heavy atom, donor atom, acceptor molecule, acceptor atom, score
      L1  C    10    21       P1  1131  1.00

> <Gold.PLP.Chemscore.Internal.Correction>
0.0006

