#       Name:                EN300-132581_i001
#       Creating user name   aseyller
#       Creation time:       Fri Apr 21 19:24:05 2023


#       File generated by GOLD software.
#

@<TRIPOS>MOLECULE
EN300-132581_i001|benzaldehydes|mol2|815|dock1
    22    23     1
SMALL
USER_CHARGES


@<TRIPOS>ATOM
      1 O1          32.4030  38.1242  34.5345 O.2            1 <1>                0.0000
      2 C2          31.4337  38.7432  34.9198 C.2            1 <1>                0.0000
      3 C3          30.6732  38.2674  36.0815 C.2            1 <1>                0.0000
      4 C4          30.9719  37.1576  36.8450 C.2            1 <1>                0.0000
      5 N5          30.0274  37.0824  37.8026 N.pl3          1 <1>                0.0000
      6 C6          29.9294  36.0654  38.8526 C.3            1 <1>                0.0000
      7 C7          28.6766  36.2943  39.6582 C.ar           1 <1>                0.0000
      8 C8          27.4398  36.3469  39.0334 C.ar           1 <1>                0.0000
      9 C9          26.3144  36.5596  39.8145 C.ar           1 <1>                0.0000
     10 C10         26.4615  36.7111  41.1805 C.ar           1 <1>                0.0000
     11 N11         27.6538  36.6553  41.7408 N.ar           1 <1>                0.0000
     12 C12         28.7452  36.4488  41.0297 C.ar           1 <1>                0.0000
     13 N13         29.1568  38.1626  37.6038 N.2            1 <1>                0.0000
     14 N14         29.5669  38.8413  36.5900 N.2            1 <1>                0.0000
     15 H15         31.1328  39.6471  34.4108 H              1 <1>                0.0000
     16 H16         31.8014  36.4807  36.7025 H              1 <1>                0.0000
     17 H17         29.8929  35.0755  38.3975 H              1 <1>                0.0000
     18 H18         30.7991  36.1329  39.5062 H              1 <1>                0.0000
     19 H19         27.3552  36.2253  37.9636 H              1 <1>                0.0000
     20 H20         25.3352  36.6065  39.3614 H              1 <1>                0.0000
     21 H21         25.5899  36.8775  41.7960 H              1 <1>                0.0000
     22 H22         29.7047  36.4091  41.5239 H              1 <1>                0.0000
@<TRIPOS>BOND
    1    1    2 2     
    2    2    3 1     
    3    2   15 1     
    4    3    4 2     
    5    3   14 1     
    6    4    5 1     
    7    4   16 1     
    8    5    6 1     
    9    5   13 1     
   10    6    7 1     
   11    6   17 1     
   12    6   18 1     
   13    7    8 ar    
   14    7   12 ar    
   15    8    9 ar    
   16    8   19 1     
   17    9   10 ar    
   18    9   20 1     
   19   10   11 ar    
   20   10   21 1     
   21   11   12 ar    
   22   12   22 1     
   23   13   14 2     
@<TRIPOS>SUBSTRUCTURE
      1 ****           1
@<TRIPOS>COMMENT
> <Gold.Version>
2022.2.0

> <Gold.Id.Protein>
1qkm|1qkm_protein|mol2

> <Gold.Protein.RotatedTorsions>
[  496  491  490  487 ] final  -11.19 input  -89.99 | X-H torsion

> <Gold.Protein.ActiveResidues>
 MET295  LEU298  THR299  LEU301  ALA302  GLU305  TRP335  MET336  LEU339  MET340 
 GLY342  LEU343  ARG346  PHE356  ILE373  ILE376  PHE377  LEU380  LYS471  GLY472 
 MET473  HIS475  LEU476  LEU477  ASN478  MET479  VAL484  VAL487 

> <Gold.Protein.RotatedAtoms>
   36.2637   34.3647   42.1314 H   0  0  0  0  0  0  0  0  0  0  0  0  # atno 496  bound_to 491 

> <Gold.Score>
     Score     S(PLP)   S(hbond)     S(cho)   S(metal)  DE(clash)   DE(tors)     intcor
     44.76     -41.83       0.00       1.00       0.00       0.00       0.04       0.00

> <Gold.PLP.Fitness>
44.7643

> <Gold.PLP.PLP>
-41.8334

> <Gold.PLP.part.hbond>
0.0000

> <Gold.PLP.part.metal>
0.0000

> <Gold.PLP.part.buried>
-4.9280

> <Gold.PLP.part.nonpolar>
-37.4327

> <Gold.PLP.part.repulsive>
0.2546

> <Gold.PLP.ligand.clash>
0.0000

> <Gold.PLP.ligand.torsion>
0.0363

> <Gold.PLP.Chemscore.Hbond>
0.0000

> <Gold.PLP.Chemscore.CHOScore>
1.0000

> <Gold.PLP.Chemscore.Metal>
0.0000

> <Gold.Chemscore.Hbonds>
donor molecule, donor type, donor heavy atom, donor atom, acceptor molecule, acceptor atom, score
      L1  C    12    22       P1   470  1.00

> <Gold.PLP.Chemscore.Internal.Correction>
0.0035

