#       Name:                EN300-132581_i001
#       Creating user name   aseyller
#       Creation time:       Fri Apr 21 19:24:09 2023


#       File generated by GOLD software.
#

@<TRIPOS>MOLECULE
EN300-132581_i001|benzaldehydes|mol2|815|dock7
    22    23     1
SMALL
USER_CHARGES


@<TRIPOS>ATOM
      1 O1          33.1195  36.9054  35.3145 O.2            1 <1>                0.0000
      2 C2          32.3357  37.8104  35.5090 C.2            1 <1>                0.0000
      3 C3          31.3948  37.7375  36.6332 C.2            1 <1>                0.0000
      4 C4          31.3104  36.7124  37.5529 C.2            1 <1>                0.0000
      5 N5          30.3225  37.0409  38.4076 N.pl3          1 <1>                0.0000
      6 C6          29.8666  36.2551  39.5570 C.3            1 <1>                0.0000
      7 C7          28.3922  36.4839  39.7689 C.ar           1 <1>                0.0000
      8 C8          27.5529  36.7024  38.6869 C.ar           1 <1>                0.0000
      9 C9          26.2036  36.9082  38.9294 C.ar           1 <1>                0.0000
     10 C10         25.7430  36.8888  40.2325 C.ar           1 <1>                0.0000
     11 N11         26.5703  36.6779  41.2372 N.ar           1 <1>                0.0000
     12 C12         27.8586  36.4727  41.0435 C.ar           1 <1>                0.0000
     13 N13         29.8140  38.2780  37.9886 N.2            1 <1>                0.0000
     14 N14         30.4685  38.6619  36.9489 N.2            1 <1>                0.0000
     15 H15         32.3331  38.6720  34.8577 H              1 <1>                0.0000
     16 H16         31.9181  35.8200  37.5818 H              1 <1>                0.0000
     17 H17         30.0466  35.1968  39.3680 H              1 <1>                0.0000
     18 H18         30.4138  36.5633  40.4478 H              1 <1>                0.0000
     19 H19         27.9413  36.7125  37.6791 H              1 <1>                0.0000
     20 H20         25.5211  37.0818  38.1106 H              1 <1>                0.0000
     21 H21         24.6933  37.0486  40.4299 H              1 <1>                0.0000
     22 H22         28.5056  36.3031  41.8914 H              1 <1>                0.0000
@<TRIPOS>BOND
    1    1    2 2     
    2    2    3 1     
    3    2   15 1     
    4    3    4 2     
    5    3   14 1     
    6    4    5 1     
    7    4   16 1     
    8    5    6 1     
    9    5   13 1     
   10    6    7 1     
   11    6   17 1     
   12    6   18 1     
   13    7    8 ar    
   14    7   12 ar    
   15    8    9 ar    
   16    8   19 1     
   17    9   10 ar    
   18    9   20 1     
   19   10   11 ar    
   20   10   21 1     
   21   11   12 ar    
   22   12   22 1     
   23   13   14 2     
@<TRIPOS>SUBSTRUCTURE
      1 ****           1
@<TRIPOS>COMMENT
> <Gold.Version>
2022.2.0

> <Gold.Id.Protein>
1qkm|1qkm_protein|mol2

> <Gold.Protein.RotatedTorsions>
[  496  491  490  487 ] final  167.70 input  -89.99 | X-H torsion

> <Gold.Protein.ActiveResidues>
 MET295  LEU298  THR299  LEU301  ALA302  GLU305  TRP335  MET336  LEU339  MET340 
 GLY342  LEU343  ARG346  PHE356  ILE373  ILE376  PHE377  LEU380  LYS471  GLY472 
 MET473  HIS475  LEU476  LEU477  ASN478  MET479  VAL484  VAL487 

> <Gold.Protein.RotatedAtoms>
   37.3124   33.2965   40.9838 H   0  0  0  0  0  0  0  0  0  0  0  0  # atno 496  bound_to 491 

> <Gold.Score>
     Score     S(PLP)   S(hbond)     S(cho)   S(metal)  DE(clash)   DE(tors)     intcor
     43.84     -42.32       0.00       1.00       0.00       0.00       0.74       0.00

> <Gold.PLP.Fitness>
43.8379

> <Gold.PLP.PLP>
-42.3198

> <Gold.PLP.part.hbond>
0.0000

> <Gold.PLP.part.metal>
0.0000

> <Gold.PLP.part.buried>
-5.3958

> <Gold.PLP.part.nonpolar>
-37.7561

> <Gold.PLP.part.repulsive>
0.2500

> <Gold.PLP.ligand.clash>
0.0000

> <Gold.PLP.ligand.torsion>
0.7353

> <Gold.PLP.Chemscore.Hbond>
0.0000

> <Gold.PLP.Chemscore.CHOScore>
0.9959

> <Gold.PLP.Chemscore.Metal>
0.0000

> <Gold.Chemscore.Hbonds>
donor molecule, donor type, donor heavy atom, donor atom, acceptor molecule, acceptor atom, score
      L1  C    10    21       P1  1131  1.00

> <Gold.PLP.Chemscore.Internal.Correction>
0.0010

