#       Name:                EN300-132581_i001
#       Creating user name   aseyller
#       Creation time:       Fri Apr 21 19:24:10 2023


#       File generated by GOLD software.
#

@<TRIPOS>MOLECULE
EN300-132581_i001|benzaldehydes|mol2|815|dock8
    22    23     1
SMALL
USER_CHARGES


@<TRIPOS>ATOM
      1 O1          33.4326  36.7020  34.5320 O.2            1 <1>                0.0000
      2 C2          33.4569  36.1206  35.5962 C.2            1 <1>                0.0000
      3 C3          32.3415  36.2684  36.5388 C.2            1 <1>                0.0000
      4 C4          31.3725  37.2499  36.4987 C.2            1 <1>                0.0000
      5 N5          30.5469  37.0200  37.5380 N.pl3          1 <1>                0.0000
      6 C6          29.3650  37.8050  37.9029 C.3            1 <1>                0.0000
      7 C7          28.5973  37.0851  38.9815 C.ar           1 <1>                0.0000
      8 C8          29.2034  36.7813  40.1911 C.ar           1 <1>                0.0000
      9 C9          28.4586  36.1182  41.1542 C.ar           1 <1>                0.0000
     10 C10         27.1459  35.7844  40.8786 C.ar           1 <1>                0.0000
     11 N11         26.6021  36.0893  39.7168 N.ar           1 <1>                0.0000
     12 C12         27.2786  36.7246  38.7798 C.ar           1 <1>                0.0000
     13 N13         31.0333  35.8864  38.2034 N.2            1 <1>                0.0000
     14 N14         32.0833  35.4665  37.5887 N.2            1 <1>                0.0000
     15 H15         34.2970  35.4905  35.8484 H              1 <1>                0.0000
     16 H16         31.2919  38.0476  35.7750 H              1 <1>                0.0000
     17 H17         29.6773  38.7827  38.2700 H              1 <1>                0.0000
     18 H18         28.7286  37.9320  37.0271 H              1 <1>                0.0000
     19 H19         30.2314  37.0545  40.3784 H              1 <1>                0.0000
     20 H20         28.8986  35.8654  42.1075 H              1 <1>                0.0000
     21 H21         26.5591  35.2674  41.6234 H              1 <1>                0.0000
     22 H22         26.7993  36.9577  37.8404 H              1 <1>                0.0000
@<TRIPOS>BOND
    1    1    2 2     
    2    2    3 1     
    3    2   15 1     
    4    3    4 2     
    5    3   14 1     
    6    4    5 1     
    7    4   16 1     
    8    5    6 1     
    9    5   13 1     
   10    6    7 1     
   11    6   17 1     
   12    6   18 1     
   13    7    8 ar    
   14    7   12 ar    
   15    8    9 ar    
   16    8   19 1     
   17    9   10 ar    
   18    9   20 1     
   19   10   11 ar    
   20   10   21 1     
   21   11   12 ar    
   22   12   22 1     
   23   13   14 2     
@<TRIPOS>SUBSTRUCTURE
      1 ****           1
@<TRIPOS>COMMENT
> <Gold.Version>
2022.2.0

> <Gold.Id.Protein>
1qkm|1qkm_protein|mol2

> <Gold.Protein.RotatedTorsions>
[  496  491  490  487 ] final  -88.22 input  -89.99 | X-H torsion

> <Gold.Protein.ActiveResidues>
 MET295  LEU298  THR299  LEU301  ALA302  GLU305  TRP335  MET336  LEU339  MET340 
 GLY342  LEU343  ARG346  PHE356  ILE373  ILE376  PHE377  LEU380  LYS471  GLY472 
 MET473  HIS475  LEU476  LEU477  ASN478  MET479  VAL484  VAL487 

> <Gold.Protein.RotatedAtoms>
   36.7409   34.6646   41.1007 H   0  0  0  0  0  0  0  0  0  0  0  0  # atno 496  bound_to 491 

> <Gold.Score>
     Score     S(PLP)   S(hbond)     S(cho)   S(metal)  DE(clash)   DE(tors)     intcor
     44.45     -41.73       0.00       1.00       0.00       0.00       0.14       0.00

> <Gold.PLP.Fitness>
44.4465

> <Gold.PLP.PLP>
-41.7308

> <Gold.PLP.part.hbond>
0.0000

> <Gold.PLP.part.metal>
0.0000

> <Gold.PLP.part.buried>
-5.8639

> <Gold.PLP.part.nonpolar>
-36.6634

> <Gold.PLP.part.repulsive>
0.3521

> <Gold.PLP.ligand.clash>
0.0000

> <Gold.PLP.ligand.torsion>
0.1427

> <Gold.PLP.Chemscore.Hbond>
0.0000

> <Gold.PLP.Chemscore.CHOScore>
1.0000

> <Gold.PLP.Chemscore.Metal>
0.0000

> <Gold.Chemscore.Hbonds>
donor molecule, donor type, donor heavy atom, donor atom, acceptor molecule, acceptor atom, score
      L1  C    10    21       P1   582  1.00

> <Gold.PLP.Chemscore.Internal.Correction>
0.0010

