#       Name:                EN300-132581_i001
#       Creating user name   aseyller
#       Creation time:       Fri Apr 21 19:24:07 2023


#       File generated by GOLD software.
#

@<TRIPOS>MOLECULE
EN300-132581_i001|benzaldehydes|mol2|815|dock4
    22    23     1
SMALL
USER_CHARGES


@<TRIPOS>ATOM
      1 O1          32.7088  37.7461  34.5955 O.2            1 <1>                0.0000
      2 C2          32.8487  36.9356  35.4870 C.2            1 <1>                0.0000
      3 C3          31.8074  36.7829  36.5101 C.2            1 <1>                0.0000
      4 C4          31.7851  35.8282  37.5061 C.2            1 <1>                0.0000
      5 N5          30.6634  36.0421  38.2207 N.pl3          1 <1>                0.0000
      6 C6          30.2111  35.2749  39.3839 C.3            1 <1>                0.0000
      7 C7          28.8665  35.7874  39.8317 C.ar           1 <1>                0.0000
      8 C8          27.8316  35.9333  38.9203 C.ar           1 <1>                0.0000
      9 C9          26.6120  36.4082  39.3773 C.ar           1 <1>                0.0000
     10 C10         26.4691  36.7182  40.7167 C.ar           1 <1>                0.0000
     11 N11         27.4754  36.5669  41.5552 N.ar           1 <1>                0.0000
     12 C12         28.6476  36.1123  41.1568 C.ar           1 <1>                0.0000
     13 N13         30.0118  37.1388  37.6402 N.2            1 <1>                0.0000
     14 N14         30.7117  37.5535  36.6427 N.2            1 <1>                0.0000
     15 H15         33.7375  36.3231  35.5255 H              1 <1>                0.0000
     16 H16         32.5232  35.0589  37.6789 H              1 <1>                0.0000
     17 H17         30.1273  34.2220  39.1146 H              1 <1>                0.0000
     18 H18         30.9308  35.3863  40.1949 H              1 <1>                0.0000
     19 H19         27.9726  35.6833  37.8791 H              1 <1>                0.0000
     20 H20         25.7842  36.5346  38.6953 H              1 <1>                0.0000
     21 H21         25.5223  37.0892  41.0806 H              1 <1>                0.0000
     22 H22         29.4484  36.0014  41.8729 H              1 <1>                0.0000
@<TRIPOS>BOND
    1    1    2 2     
    2    2    3 1     
    3    2   15 1     
    4    3    4 2     
    5    3   14 1     
    6    4    5 1     
    7    4   16 1     
    8    5    6 1     
    9    5   13 1     
   10    6    7 1     
   11    6   17 1     
   12    6   18 1     
   13    7    8 ar    
   14    7   12 ar    
   15    8    9 ar    
   16    8   19 1     
   17    9   10 ar    
   18    9   20 1     
   19   10   11 ar    
   20   10   21 1     
   21   11   12 ar    
   22   12   22 1     
   23   13   14 2     
@<TRIPOS>SUBSTRUCTURE
      1 ****           1
@<TRIPOS>COMMENT
> <Gold.Version>
2022.2.0

> <Gold.Id.Protein>
1qkm|1qkm_protein|mol2

> <Gold.Protein.RotatedTorsions>
[  496  491  490  487 ] final  -34.61 input  -89.99 | X-H torsion

> <Gold.Protein.ActiveResidues>
 MET295  LEU298  THR299  LEU301  ALA302  GLU305  TRP335  MET336  LEU339  MET340 
 GLY342  LEU343  ARG346  PHE356  ILE373  ILE376  PHE377  LEU380  LYS471  GLY472 
 MET473  HIS475  LEU476  LEU477  ASN478  MET479  VAL484  VAL487 

> <Gold.Protein.RotatedAtoms>
   36.3355   34.6104   41.8466 H   0  0  0  0  0  0  0  0  0  0  0  0  # atno 496  bound_to 491 

> <Gold.Score>
     Score     S(PLP)   S(hbond)     S(cho)   S(metal)  DE(clash)   DE(tors)     intcor
     44.93     -42.14       0.00       1.00       0.00       0.00       0.11       0.00

> <Gold.PLP.Fitness>
44.9251

> <Gold.PLP.PLP>
-42.1387

> <Gold.PLP.part.hbond>
0.0000

> <Gold.PLP.part.metal>
0.0000

> <Gold.PLP.part.buried>
-4.4834

> <Gold.PLP.part.nonpolar>
-38.3922

> <Gold.PLP.part.repulsive>
0.2603

> <Gold.PLP.ligand.clash>
0.0000

> <Gold.PLP.ligand.torsion>
0.1074

> <Gold.PLP.Chemscore.Hbond>
0.0000

> <Gold.PLP.Chemscore.CHOScore>
1.0000

> <Gold.PLP.Chemscore.Metal>
0.0000

> <Gold.Chemscore.Hbonds>
donor molecule, donor type, donor heavy atom, donor atom, acceptor molecule, acceptor atom, score
      L1  C    12    22       P1   470  1.00

> <Gold.PLP.Chemscore.Internal.Correction>
0.0013

