#       Name:                EN300-132581_i001
#       Creating user name   aseyller
#       Creation time:       Fri Apr 21 19:24:18 2023


#       File generated by GOLD software.
#

@<TRIPOS>MOLECULE
EN300-132581_i001|benzaldehydes|mol2|815|dock19
    22    23     1
SMALL
USER_CHARGES


@<TRIPOS>ATOM
      1 O1          32.9947  37.6150  35.0925 O.2            1 <1>                0.0000
      2 C2          32.0259  36.9743  35.4421 C.2            1 <1>                0.0000
      3 C3          30.9042  37.6453  36.1098 C.2            1 <1>                0.0000
      4 C4          29.6989  37.0647  36.4478 C.2            1 <1>                0.0000
      5 N5          28.9604  38.0241  37.0383 N.pl3          1 <1>                0.0000
      6 C6          27.6024  37.8771  37.5678 C.3            1 <1>                0.0000
      7 C7          27.6490  37.1105  38.8644 C.ar           1 <1>                0.0000
      8 C8          26.4791  36.8146  39.5475 C.ar           1 <1>                0.0000
      9 C9          26.5701  36.1073  40.7363 C.ar           1 <1>                0.0000
     10 C10         27.8151  35.7232  41.1979 C.ar           1 <1>                0.0000
     11 N11         28.9068  36.0221  40.5216 N.ar           1 <1>                0.0000
     12 C12         28.8576  36.6885  39.3845 C.ar           1 <1>                0.0000
     13 N13         29.7388  39.1896  37.0506 N.2            1 <1>                0.0000
     14 N14         30.8752  38.9321  36.5038 N.2            1 <1>                0.0000
     15 H15         31.9867  35.9108  35.2581 H              1 <1>                0.0000
     16 H16         29.4047  36.0404  36.2726 H              1 <1>                0.0000
     17 H17         27.1723  38.8631  37.7440 H              1 <1>                0.0000
     18 H18         26.9882  37.3363  36.8478 H              1 <1>                0.0000
     19 H19         25.5198  37.1280  39.1628 H              1 <1>                0.0000
     20 H20         25.6795  35.8597  41.2949 H              1 <1>                0.0000
     21 H21         27.8946  35.1723  42.1234 H              1 <1>                0.0000
     22 H22         29.7732  36.9148  38.8584 H              1 <1>                0.0000
@<TRIPOS>BOND
    1    1    2 2     
    2    2    3 1     
    3    2   15 1     
    4    3    4 2     
    5    3   14 1     
    6    4    5 1     
    7    4   16 1     
    8    5    6 1     
    9    5   13 1     
   10    6    7 1     
   11    6   17 1     
   12    6   18 1     
   13    7    8 ar    
   14    7   12 ar    
   15    8    9 ar    
   16    8   19 1     
   17    9   10 ar    
   18    9   20 1     
   19   10   11 ar    
   20   10   21 1     
   21   11   12 ar    
   22   12   22 1     
   23   13   14 2     
@<TRIPOS>SUBSTRUCTURE
      1 ****           1
@<TRIPOS>COMMENT
> <Gold.Version>
2022.2.0

> <Gold.Id.Protein>
1qkm|1qkm_protein|mol2

> <Gold.Protein.RotatedTorsions>
[  496  491  490  487 ] final  135.55 input  -89.99 | X-H torsion

> <Gold.Protein.ActiveResidues>
 MET295  LEU298  THR299  LEU301  ALA302  GLU305  TRP335  MET336  LEU339  MET340 
 GLY342  LEU343  ARG346  PHE356  ILE373  ILE376  PHE377  LEU380  LYS471  GLY472 
 MET473  HIS475  LEU476  LEU477  ASN478  MET479  VAL484  VAL487 

> <Gold.Protein.RotatedAtoms>
   37.1885   32.9980   41.3941 H   0  0  0  0  0  0  0  0  0  0  0  0  # atno 496  bound_to 491 

> <Gold.Score>
     Score     S(PLP)   S(hbond)     S(cho)   S(metal)  DE(clash)   DE(tors)     intcor
     42.56     -39.95       0.00       1.00       0.00       0.00       0.19       0.00

> <Gold.PLP.Fitness>
42.5552

> <Gold.PLP.PLP>
-39.9519

> <Gold.PLP.part.hbond>
0.0000

> <Gold.PLP.part.metal>
0.0000

> <Gold.PLP.part.buried>
-5.3107

> <Gold.PLP.part.nonpolar>
-35.0524

> <Gold.PLP.part.repulsive>
0.2306

> <Gold.PLP.ligand.clash>
0.0000

> <Gold.PLP.ligand.torsion>
0.1929

> <Gold.PLP.Chemscore.Hbond>
0.0000

> <Gold.PLP.Chemscore.CHOScore>
0.9963

> <Gold.PLP.Chemscore.Metal>
0.0000

> <Gold.Chemscore.Hbonds>
donor molecule, donor type, donor heavy atom, donor atom, acceptor molecule, acceptor atom, score
      L1  C    10    21       P1   582  1.00

> <Gold.PLP.Chemscore.Internal.Correction>
0.0002

