#       Name:                EN300-132581_i001
#       Creating user name   aseyller
#       Creation time:       Fri Apr 21 19:24:06 2023


#       File generated by GOLD software.
#

@<TRIPOS>MOLECULE
EN300-132581_i001|benzaldehydes|mol2|815|dock2
    22    23     1
SMALL
USER_CHARGES


@<TRIPOS>ATOM
      1 O1          26.1824  36.9574  40.4249 O.2            1 <1>                0.0000
      2 C2          27.2606  36.4780  40.7059 C.2            1 <1>                0.0000
      3 C3          28.3456  36.4824  39.7174 C.2            1 <1>                0.0000
      4 C4          29.5950  35.9211  39.8845 C.2            1 <1>                0.0000
      5 N5          30.2761  36.1490  38.7449 N.pl3          1 <1>                0.0000
      6 C6          31.6514  35.7364  38.4536 C.3            1 <1>                0.0000
      7 C7          32.1279  36.4255  37.2010 C.ar           1 <1>                0.0000
      8 C8          32.8380  35.7223  36.2396 C.ar           1 <1>                0.0000
      9 C9          33.2564  36.3972  35.1033 C.ar           1 <1>                0.0000
     10 C10         32.9539  37.7391  34.9673 C.ar           1 <1>                0.0000
     11 N11         32.2765  38.3759  35.9022 N.ar           1 <1>                0.0000
     12 C12         31.8577  37.7646  36.9932 C.ar           1 <1>                0.0000
     13 N13         29.4185  36.8552  37.8904 N.2            1 <1>                0.0000
     14 N14         28.2923  37.0295  38.4887 N.2            1 <1>                0.0000
     15 H15         27.4238  36.0521  41.6849 H              1 <1>                0.0000
     16 H16         29.9567  35.4006  40.7590 H              1 <1>                0.0000
     17 H17         32.2974  36.0110  39.2876 H              1 <1>                0.0000
     18 H18         31.6839  34.6566  38.3091 H              1 <1>                0.0000
     19 H19         33.0601  34.6738  36.3732 H              1 <1>                0.0000
     20 H20         33.8119  35.8811  34.3342 H              1 <1>                0.0000
     21 H21         33.2766  38.2722  34.0852 H              1 <1>                0.0000
     22 H22         31.3051  38.3193  37.7371 H              1 <1>                0.0000
@<TRIPOS>BOND
    1    1    2 2     
    2    2    3 1     
    3    2   15 1     
    4    3    4 2     
    5    3   14 1     
    6    4    5 1     
    7    4   16 1     
    8    5    6 1     
    9    5   13 1     
   10    6    7 1     
   11    6   17 1     
   12    6   18 1     
   13    7    8 ar    
   14    7   12 ar    
   15    8    9 ar    
   16    8   19 1     
   17    9   10 ar    
   18    9   20 1     
   19   10   11 ar    
   20   10   21 1     
   21   11   12 ar    
   22   12   22 1     
   23   13   14 2     
@<TRIPOS>SUBSTRUCTURE
      1 ****           1
@<TRIPOS>COMMENT
> <Gold.Version>
2022.2.0

> <Gold.Id.Protein>
1qkm|1qkm_protein|mol2

> <Gold.Protein.RotatedTorsions>
[  496  491  490  487 ] final   13.76 input  -89.99 | X-H torsion

> <Gold.Protein.ActiveResidues>
 MET295  LEU298  THR299  LEU301  ALA302  GLU305  TRP335  MET336  LEU339  MET340 
 GLY342  LEU343  ARG346  PHE356  ILE373  ILE376  PHE377  LEU380  LYS471  GLY472 
 MET473  HIS475  LEU476  LEU477  ASN478  MET479  VAL484  VAL487 

> <Gold.Protein.RotatedAtoms>
   36.2824   34.0088   42.3288 H   0  0  0  0  0  0  0  0  0  0  0  0  # atno 496  bound_to 491 

> <Gold.Score>
     Score     S(PLP)   S(hbond)     S(cho)   S(metal)  DE(clash)   DE(tors)     intcor
     45.94     -40.64       0.00       2.00       0.00       0.00       0.35       0.00

> <Gold.PLP.Fitness>
45.9382

> <Gold.PLP.PLP>
-40.6380

> <Gold.PLP.part.hbond>
0.0000

> <Gold.PLP.part.metal>
0.0000

> <Gold.PLP.part.buried>
-4.4759

> <Gold.PLP.part.nonpolar>
-36.6215

> <Gold.PLP.part.repulsive>
0.1315

> <Gold.PLP.ligand.clash>
0.0000

> <Gold.PLP.ligand.torsion>
0.3517

> <Gold.PLP.Chemscore.Hbond>
0.0000

> <Gold.PLP.Chemscore.CHOScore>
2.0000

> <Gold.PLP.Chemscore.Metal>
0.0000

> <Gold.Chemscore.Hbonds>
donor molecule, donor type, donor heavy atom, donor atom, acceptor molecule, acceptor atom, score
      L1  C     4    16       P1   470  1.00
      L1  C    10    21       P1  3229  1.00

> <Gold.PLP.Chemscore.Internal.Correction>
0.0035

