#       Name:                EN300-132581_i001
#       Creating user name   aseyller
#       Creation time:       Fri Apr 21 19:24:15 2023


#       File generated by GOLD software.
#

@<TRIPOS>MOLECULE
EN300-132581_i001|benzaldehydes|mol2|815|dock15
    22    23     1
SMALL
USER_CHARGES


@<TRIPOS>ATOM
      1 O1          31.4321  32.6010  38.3169 O.2            1 <1>                0.0000
      2 C2          32.2125  33.4244  37.8877 C.2            1 <1>                0.0000
      3 C3          31.8547  34.8479  37.8945 C.2            1 <1>                0.0000
      4 C4          30.7143  35.3933  38.4476 C.2            1 <1>                0.0000
      5 N5          30.7795  36.7219  38.2349 N.pl3          1 <1>                0.0000
      6 C6          29.7893  37.7203  38.6460 C.3            1 <1>                0.0000
      7 C7          28.6896  37.0460  39.4251 C.ar           1 <1>                0.0000
      8 C8          27.3990  36.9985  38.9204 C.ar           1 <1>                0.0000
      9 C9          26.4194  36.3678  39.6718 C.ar           1 <1>                0.0000
     10 C10         26.7594  35.8113  40.8905 C.ar           1 <1>                0.0000
     11 N11         27.9976  35.8755  41.3393 N.ar           1 <1>                0.0000
     12 C12         28.9560  36.4623  40.6490 C.ar           1 <1>                0.0000
     13 N13         31.9752  36.9674  37.5461 N.2            1 <1>                0.0000
     14 N14         32.5852  35.8482  37.3672 N.2            1 <1>                0.0000
     15 H15         33.1724  33.1108  37.5048 H              1 <1>                0.0000
     16 H16         29.9231  34.8589  38.9525 H              1 <1>                0.0000
     17 H17         30.2698  38.4722  39.2721 H              1 <1>                0.0000
     18 H18         29.3676  38.1991  37.7623 H              1 <1>                0.0000
     19 H19         27.1624  37.4425  37.9647 H              1 <1>                0.0000
     20 H20         25.4035  36.3123  39.3096 H              1 <1>                0.0000
     21 H21         26.0021  35.3186  41.4821 H              1 <1>                0.0000
     22 H22         29.9586  36.4950  41.0490 H              1 <1>                0.0000
@<TRIPOS>BOND
    1    1    2 2     
    2    2    3 1     
    3    2   15 1     
    4    3    4 2     
    5    3   14 1     
    6    4    5 1     
    7    4   16 1     
    8    5    6 1     
    9    5   13 1     
   10    6    7 1     
   11    6   17 1     
   12    6   18 1     
   13    7    8 ar    
   14    7   12 ar    
   15    8    9 ar    
   16    8   19 1     
   17    9   10 ar    
   18    9   20 1     
   19   10   11 ar    
   20   10   21 1     
   21   11   12 ar    
   22   12   22 1     
   23   13   14 2     
@<TRIPOS>SUBSTRUCTURE
      1 ****           1
@<TRIPOS>COMMENT
> <Gold.Version>
2022.2.0

> <Gold.Id.Protein>
1qkm|1qkm_protein|mol2

> <Gold.Protein.RotatedTorsions>
[  496  491  490  487 ] final -159.54 input  -89.99 | X-H torsion

> <Gold.Protein.ActiveResidues>
 MET295  LEU298  THR299  LEU301  ALA302  GLU305  TRP335  MET336  LEU339  MET340 
 GLY342  LEU343  ARG346  PHE356  ILE373  ILE376  PHE377  LEU380  LYS471  GLY472 
 MET473  HIS475  LEU476  LEU477  ASN478  MET479  VAL484  VAL487 

> <Gold.Protein.RotatedAtoms>
   37.2735   33.7705   40.7454 H   0  0  0  0  0  0  0  0  0  0  0  0  # atno 496  bound_to 491 

> <Gold.Score>
     Score     S(PLP)   S(hbond)     S(cho)   S(metal)  DE(clash)   DE(tors)     intcor
     47.98     -42.07       0.00       2.00       0.00       0.00       0.04       0.00

> <Gold.PLP.Fitness>
47.9800

> <Gold.PLP.PLP>
-42.0697

> <Gold.PLP.part.hbond>
0.0000

> <Gold.PLP.part.metal>
0.0000

> <Gold.PLP.part.buried>
-4.6330

> <Gold.PLP.part.nonpolar>
-38.3823

> <Gold.PLP.part.repulsive>
0.1762

> <Gold.PLP.ligand.clash>
0.0000

> <Gold.PLP.ligand.torsion>
0.0450

> <Gold.PLP.Chemscore.Hbond>
0.0000

> <Gold.PLP.Chemscore.CHOScore>
2.0000

> <Gold.PLP.Chemscore.Metal>
0.0000

> <Gold.Chemscore.Hbonds>
donor molecule, donor type, donor heavy atom, donor atom, acceptor molecule, acceptor atom, score
      L1  C    10    21       P1   582  1.00
      L1  C    12    22       P1   470  1.00

> <Gold.PLP.Chemscore.Internal.Correction>
0.0002

