#       Name:                EN300-132581_i001
#       Creating user name   aseyller
#       Creation time:       Fri Apr 21 19:24:16 2023


#       File generated by GOLD software.
#

@<TRIPOS>MOLECULE
EN300-132581_i001|benzaldehydes|mol2|815|dock17
    22    23     1
SMALL
USER_CHARGES


@<TRIPOS>ATOM
      1 O1          24.8958  36.7114  41.8224 O.2            1 <1>                0.0000
      2 C2          25.5574  37.0221  40.8544 C.2            1 <1>                0.0000
      3 C3          26.8785  36.4182  40.6440 C.2            1 <1>                0.0000
      4 C4          27.2968  35.7634  39.5038 C.2            1 <1>                0.0000
      5 N5          28.5648  35.3683  39.7288 N.pl3          1 <1>                0.0000
      6 C6          29.4269  34.6332  38.7999 C.3            1 <1>                0.0000
      7 C7          30.5131  35.5465  38.2929 C.ar           1 <1>                0.0000
      8 C8          31.8370  35.1342  38.2993 C.ar           1 <1>                0.0000
      9 C9          32.8025  36.0078  37.8234 C.ar           1 <1>                0.0000
     10 C10         32.4161  37.2519  37.3616 C.ar           1 <1>                0.0000
     11 N11         31.1473  37.6105  37.3704 N.ar           1 <1>                0.0000
     12 C12         30.2016  36.8034  37.8104 C.ar           1 <1>                0.0000
     13 N13         28.9029  35.7949  41.0204 N.2            1 <1>                0.0000
     14 N14         27.8940  36.4125  41.5277 N.2            1 <1>                0.0000
     15 H15         25.1725  37.7397  40.1450 H              1 <1>                0.0000
     16 H16         26.7198  35.5992  38.6057 H              1 <1>                0.0000
     17 H17         29.8769  33.7849  39.3158 H              1 <1>                0.0000
     18 H18         28.8327  34.2739  37.9598 H              1 <1>                0.0000
     19 H19         32.1096  34.1558  38.6667 H              1 <1>                0.0000
     20 H20         33.8434  35.7199  37.8139 H              1 <1>                0.0000
     21 H21         33.1622  37.9385  36.9895 H              1 <1>                0.0000
     22 H22         29.1728  37.1320  37.8020 H              1 <1>                0.0000
@<TRIPOS>BOND
    1    1    2 2     
    2    2    3 1     
    3    2   15 1     
    4    3    4 2     
    5    3   14 1     
    6    4    5 1     
    7    4   16 1     
    8    5    6 1     
    9    5   13 1     
   10    6    7 1     
   11    6   17 1     
   12    6   18 1     
   13    7    8 ar    
   14    7   12 ar    
   15    8    9 ar    
   16    8   19 1     
   17    9   10 ar    
   18    9   20 1     
   19   10   11 ar    
   20   10   21 1     
   21   11   12 ar    
   22   12   22 1     
   23   13   14 2     
@<TRIPOS>SUBSTRUCTURE
      1 ****           1
@<TRIPOS>COMMENT
> <Gold.Version>
2022.2.0

> <Gold.Id.Protein>
1qkm|1qkm_protein|mol2

> <Gold.Protein.RotatedTorsions>
[  496  491  490  487 ] final  -69.72 input  -89.99 | X-H torsion

> <Gold.Protein.ActiveResidues>
 MET295  LEU298  THR299  LEU301  ALA302  GLU305  TRP335  MET336  LEU339  MET340 
 GLY342  LEU343  ARG346  PHE356  ILE373  ILE376  PHE377  LEU380  LYS471  GLY472 
 MET473  HIS475  LEU476  LEU477  ASN478  MET479  VAL484  VAL487 

> <Gold.Protein.RotatedAtoms>
   36.5759   34.7331   41.3457 H   0  0  0  0  0  0  0  0  0  0  0  0  # atno 496  bound_to 491 

> <Gold.Score>
     Score     S(PLP)   S(hbond)     S(cho)   S(metal)  DE(clash)   DE(tors)     intcor
     42.55     -42.22       0.59       0.00       0.00       0.00       0.72       0.00

> <Gold.PLP.Fitness>
42.5452

> <Gold.PLP.PLP>
-42.2168

> <Gold.PLP.part.hbond>
-1.0000

> <Gold.PLP.part.metal>
0.0000

> <Gold.PLP.part.buried>
-6.7567

> <Gold.PLP.part.nonpolar>
-36.6614

> <Gold.PLP.part.repulsive>
0.5823

> <Gold.PLP.ligand.clash>
0.0000

> <Gold.PLP.ligand.torsion>
0.7239

> <Gold.PLP.Chemscore.Hbond>
0.5920

> <Gold.PLP.Chemscore.CHOScore>
0.0000

> <Gold.PLP.Chemscore.Metal>
0.0000

> <Gold.Chemscore.Hbonds>
donor molecule, donor type, donor heavy atom, donor atom, acceptor molecule, acceptor atom, score
      P1  H  1258  1270       L1     1  0.59

> <Gold.PLP.Chemscore.Internal.Correction>
0.0002

