#       Name:                plp ligand
#       Creating user name   aseyller
#       Creation time:       Fri Apr 21 19:24:05 2023


#       File generated by GOLD software.
#

@<TRIPOS>MOLECULE
plp ligand
    22    23     1
SMALL
USER_CHARGES


@<TRIPOS>ATOM
      1 O1          -5.1024  -0.3543   1.2087 ACCEPTOR       1 <1>                0.0000
      2 C2          -4.3728   0.4162   0.6211 NONPOLAR       1 <1>                0.0000
      3 C3          -3.0352  -0.0167   0.1994 NONPOLAR       1 <1>                0.0000
      4 C4          -2.1094   0.7545  -0.4729 NONPOLAR       1 <1>                0.0000
      5 N5          -1.0254  -0.0222  -0.6633 NONPOLAR       1 <1>                0.0000
      6 C6           0.2177   0.3651  -1.3349 NONPOLAR       1 <1>                0.0000
      7 C7           1.3848   0.1141  -0.4152 NONPOLAR       1 <1>                0.0000
      8 C8           2.0364  -1.1099  -0.4256 NONPOLAR       1 <1>                0.0000
      9 C9           3.1050  -1.2959   0.4377 NONPOLAR       1 <1>                0.0000
     10 C10          3.4828  -0.2624   1.2742 NONPOLAR       1 <1>                0.0000
     11 N11          2.8398   0.8886   1.2570 ACCEPTOR       1 <1>                0.0000
     12 C12          1.8228   1.1028   0.4451 NONPOLAR       1 <1>                0.0000
     13 N13         -1.3127  -1.2712  -0.0960 ACCEPTOR       1 <1>                0.0000
     14 N14         -2.4970  -1.2330   0.4067 ACCEPTOR       1 <1>                0.0000
     15 H15         -4.7090   1.4194   0.4042                1 <1>                0.0000
     16 H16         -2.2304   1.7811  -0.7859                1 <1>                0.0000
     17 H17          0.3383  -0.2240  -2.2441                1 <1>                0.0000
     18 H18          0.1778   1.4239  -1.5907                1 <1>                0.0000
     19 H19          1.7187  -1.8997  -1.0903                1 <1>                0.0000
     20 H20          3.6354  -2.2365   0.4566                1 <1>                0.0000
     21 H21          4.3140  -0.3994   1.9500                1 <1>                0.0000
     22 H22          1.3207   2.0589   0.4592                1 <1>                0.0000
@<TRIPOS>BOND
    1    1    2 2     
    2    2    3 1     
    3    2   15 1     
    4    3    4 2     
    5    3   14 1     
    6    4    5 1     
    7    4   16 1     
    8    5    6 1     
    9    5   13 1     
   10    6    7 1     
   11    6   17 1     
   12    6   18 1     
   13    7    8 ar    
   14    7   12 ar    
   15    8    9 ar    
   16    8   19 1     
   17    9   10 ar    
   18    9   20 1     
   19   10   11 ar    
   20   10   21 1     
   21   11   12 ar    
   22   12   22 1     
   23   13   14 2     
@<TRIPOS>SUBSTRUCTURE
      1 ****           1
@<TRIPOS>SET
DONOR_HYDROGENS      STATIC     ATOMS    <user>   **** ""
0
ATOM$RED        STATIC     ATOMS    COLORGROUP SYSTEM
0
