#       Name:                EN300-153879_i004
#       Creating user name   aseyller
#       Creation time:       Fri Apr 21 13:08:30 2023


#       File generated by GOLD software.
#

@<TRIPOS>MOLECULE
EN300-153879_i004|amine_1|mol2|274|dock20
    20    20     1
SMALL
USER_CHARGES


@<TRIPOS>ATOM
      1 N1          30.5390  35.8328  39.4366 N.3            1 <1>                0.0000
      2 C2          31.6107  35.5170  38.4828 C.3            1 <1>                0.0000
      3 C3          31.7127  34.0571  38.3251 C.1            1 <1>                0.0000
      4 C4          31.7941  32.8927  38.1991 C.1            1 <1>                0.0000
      5 C5          31.2930  36.1553  37.1290 C.3            1 <1>                0.0000
      6 C6          31.1548  37.6876  37.2720 C.3            1 <1>                0.0000
      7 C7          32.2722  38.2514  36.3667 C.3            1 <1>                0.0000
      8 O8          32.5283  37.2070  35.4026 O.3            1 <1>                0.0000
      9 C9          32.4777  35.9747  36.1542 C.3            1 <1>                0.0000
     10 H10         32.5567  35.9092  38.8563 H              1 <1>                0.0000
     11 H11         31.8669  31.8513  38.0865 H              1 <1>                0.0000
     12 H12         30.3824  35.7271  36.7102 H              1 <1>                0.0000
     13 H13         30.1766  38.0171  36.9217 H              1 <1>                0.0000
     14 H14         31.3126  37.9904  38.3072 H              1 <1>                0.0000
     15 H15         31.9326  39.1569  35.8639 H              1 <1>                0.0000
     16 H16         33.1686  38.4552  36.9525 H              1 <1>                0.0000
     17 H17         33.4055  35.8293  36.7074 H              1 <1>                0.0000
     18 H18         32.2959  35.1313  35.4882 H              1 <1>                0.0000
     19 H19         29.7008  35.3129  39.2238 H              1 <1>                0.0000
     20 H20         30.8380  35.6641  40.3853 H              1 <1>                0.0000
@<TRIPOS>BOND
    1    1    2 1     
    2    1   19 1     
    3    1   20 1     
    4    2    3 1     
    5    2    5 1     
    6    2   10 1     
    7    3    4 3     
    8    4   11 1     
    9    5    6 1     
   10    5    9 1     
   11    5   12 1     
   12    6    7 1     
   13    6   13 1     
   14    6   14 1     
   15    7    8 1     
   16    7   15 1     
   17    7   16 1     
   18    8    9 1     
   19    9   17 1     
   20    9   18 1     
@<TRIPOS>SUBSTRUCTURE
      1 ****           1
@<TRIPOS>SET
DONOR_HYDROGENS      STATIC     ATOMS    <user>   **** ""
2 19 20
ATOM$RED        STATIC     ATOMS    COLORGROUP SYSTEM
2 19 20
@<TRIPOS>COMMENT
> <Gold.Version>
2022.2.0

> <Gold.Id.Protein>
1qkm|1qkm_protein|mol2

> <Gold.Protein.RotatedTorsions>
[  496  491  490  487 ] final  138.26 input  -89.99 | X-H torsion

> <Gold.Protein.ActiveResidues>
 MET295  LEU298  THR299  LEU301  ALA302  GLU305  TRP335  MET336  LEU339  MET340 
 GLY342  LEU343  ARG346  PHE356  ILE373  ILE376  PHE377  LEU380  LYS471  GLY472 
 MET473  HIS475  LEU476  LEU477  ASN478  MET479  VAL484  VAL487 

> <Gold.Protein.RotatedAtoms>
   37.2045   33.0140   41.3557 H   0  0  0  0  0  0  0  0  0  0  0  0  # atno 496  bound_to 491 

> <Gold.Score>
     Score     S(PLP)   S(hbond)     S(cho)   S(metal)  DE(clash)   DE(tors)     intcor
     31.51     -28.54       1.00       0.00       0.00       0.00       0.02       0.01

> <Gold.PLP.Fitness>
31.5108

> <Gold.PLP.PLP>
-28.5383

> <Gold.PLP.part.hbond>
-1.0000

> <Gold.PLP.part.metal>
0.0000

> <Gold.PLP.part.buried>
-2.6896

> <Gold.PLP.part.nonpolar>
-25.6499

> <Gold.PLP.part.repulsive>
0.0946

> <Gold.PLP.ligand.clash>
0.0000

> <Gold.PLP.ligand.torsion>
0.0211

> <Gold.PLP.Chemscore.Hbond>
1.0000

> <Gold.PLP.Chemscore.CHOScore>
0.0000

> <Gold.PLP.Chemscore.Metal>
0.0000

> <Gold.Chemscore.Hbonds>
donor molecule, donor type, donor heavy atom, donor atom, acceptor molecule, acceptor atom, score
      L1  H     1    20       P1   470  1.00

> <Gold.PLP.Chemscore.Internal.Correction>
0.0148

