#       Name:                EN300-153879_i004
#       Creating user name   aseyller
#       Creation time:       Fri Apr 21 13:08:22 2023


#       File generated by GOLD software.
#

@<TRIPOS>MOLECULE
EN300-153879_i004|amine_1|mol2|274|dock5
    20    20     1
SMALL
USER_CHARGES


@<TRIPOS>ATOM
      1 N1          29.3953  36.6651  41.5954 N.3            1 <1>                0.0000
      2 C2          28.3546  35.8383  40.9700 C.3            1 <1>                0.0000
      3 C3          27.0413  36.4750  41.1610 C.1            1 <1>                0.0000
      4 C4          25.9939  36.9831  41.3133 C.1            1 <1>                0.0000
      5 C5          28.6424  35.7017  39.4735 C.3            1 <1>                0.0000
      6 C6          28.5632  37.0798  38.7790 C.3            1 <1>                0.0000
      7 C7          29.9830  37.2956  38.2101 C.3            1 <1>                0.0000
      8 O8          30.5281  35.9661  38.0640 O.3            1 <1>                0.0000
      9 C9          30.1009  35.2481  39.2420 C.3            1 <1>                0.0000
     10 H10         28.3498  34.8503  41.4306 H              1 <1>                0.0000
     11 H11         25.0571  37.4373  41.4494 H              1 <1>                0.0000
     12 H12         27.9449  35.0016  39.0137 H              1 <1>                0.0000
     13 H13         27.8282  37.0601  37.9743 H              1 <1>                0.0000
     14 H14         28.3188  37.8582  39.5018 H              1 <1>                0.0000
     15 H15         29.9323  37.7934  37.2418 H              1 <1>                0.0000
     16 H16         30.5861  37.8785  38.9063 H              1 <1>                0.0000
     17 H17         30.7220  35.5170  40.0963 H              1 <1>                0.0000
     18 H18         30.1405  34.1731  39.0664 H              1 <1>                0.0000
     19 H19         29.1971  36.8176  42.5729 H              1 <1>                0.0000
     20 H20         30.3078  36.2527  41.4715 H              1 <1>                0.0000
@<TRIPOS>BOND
    1    1    2 1     
    2    1   19 1     
    3    1   20 1     
    4    2    3 1     
    5    2    5 1     
    6    2   10 1     
    7    3    4 3     
    8    4   11 1     
    9    5    6 1     
   10    5    9 1     
   11    5   12 1     
   12    6    7 1     
   13    6   13 1     
   14    6   14 1     
   15    7    8 1     
   16    7   15 1     
   17    7   16 1     
   18    8    9 1     
   19    9   17 1     
   20    9   18 1     
@<TRIPOS>SUBSTRUCTURE
      1 ****           1
@<TRIPOS>SET
DONOR_HYDROGENS      STATIC     ATOMS    <user>   **** ""
2 19 20
ATOM$RED        STATIC     ATOMS    COLORGROUP SYSTEM
2 19 20
@<TRIPOS>COMMENT
> <Gold.Version>
2022.2.0

> <Gold.Id.Protein>
1qkm|1qkm_protein|mol2

> <Gold.Protein.RotatedTorsions>
[  496  491  490  487 ] final  129.21 input  -89.99 | X-H torsion

> <Gold.Protein.ActiveResidues>
 MET295  LEU298  THR299  LEU301  ALA302  GLU305  TRP335  MET336  LEU339  MET340 
 GLY342  LEU343  ARG346  PHE356  ILE373  ILE376  PHE377  LEU380  LYS471  GLY472 
 MET473  HIS475  LEU476  LEU477  ASN478  MET479  VAL484  VAL487 

> <Gold.Protein.RotatedAtoms>
   37.1476   32.9679   41.4853 H   0  0  0  0  0  0  0  0  0  0  0  0  # atno 496  bound_to 491 

> <Gold.Score>
     Score     S(PLP)   S(hbond)     S(cho)   S(metal)  DE(clash)   DE(tors)     intcor
     34.60     -31.68       1.00       0.00       0.00       0.00       0.05       0.01

> <Gold.PLP.Fitness>
34.5991

> <Gold.PLP.PLP>
-31.6812

> <Gold.PLP.part.hbond>
-1.0000

> <Gold.PLP.part.metal>
0.0000

> <Gold.PLP.part.buried>
-3.6882

> <Gold.PLP.part.nonpolar>
-27.9356

> <Gold.PLP.part.repulsive>
0.0355

> <Gold.PLP.ligand.clash>
0.0000

> <Gold.PLP.ligand.torsion>
0.0484

> <Gold.PLP.Chemscore.Hbond>
1.0000

> <Gold.PLP.Chemscore.CHOScore>
0.0000

> <Gold.PLP.Chemscore.Metal>
0.0000

> <Gold.Chemscore.Hbonds>
donor molecule, donor type, donor heavy atom, donor atom, acceptor molecule, acceptor atom, score
      L1  H     1    20       P1   470  1.00

> <Gold.PLP.Chemscore.Internal.Correction>
0.0148

