#       Name:                EN300-153879_i004
#       Creating user name   aseyller
#       Creation time:       Fri Apr 21 13:08:22 2023


#       File generated by GOLD software.
#

@<TRIPOS>MOLECULE
EN300-153879_i004|amine_1|mol2|274|dock4
    20    20     1
SMALL
USER_CHARGES


@<TRIPOS>ATOM
      1 N1          33.3200  36.7018  34.0005 N.3            1 <1>                0.0000
      2 C2          32.7282  37.2549  35.2260 C.3            1 <1>                0.0000
      3 C3          31.8185  38.3582  34.8770 C.1            1 <1>                0.0000
      4 C4          31.0930  39.2383  34.5986 C.1            1 <1>                0.0000
      5 C5          31.9459  36.1597  35.9539 C.3            1 <1>                0.0000
      6 C6          32.9080  35.2292  36.7258 C.3            1 <1>                0.0000
      7 C7          32.4825  35.3906  38.2020 C.3            1 <1>                0.0000
      8 O8          31.1067  35.8261  38.1441 O.3            1 <1>                0.0000
      9 C9          31.0530  36.7733  37.0551 C.3            1 <1>                0.0000
     10 H10         33.5200  37.6284  35.8754 H              1 <1>                0.0000
     11 H11         30.4441  40.0253  34.3496 H              1 <1>                0.0000
     12 H12         31.3453  35.5869  35.2473 H              1 <1>                0.0000
     13 H13         32.7812  34.1960  36.4025 H              1 <1>                0.0000
     14 H14         33.9409  35.5493  36.5888 H              1 <1>                0.0000
     15 H15         32.5570  34.4371  38.7248 H              1 <1>                0.0000
     16 H16         33.0984  36.1433  38.6943 H              1 <1>                0.0000
     17 H17         31.4496  37.7380  37.3715 H              1 <1>                0.0000
     18 H18         30.0293  36.8820  36.6969 H              1 <1>                0.0000
     19 H19         32.6038  36.4356  33.3414 H              1 <1>                0.0000
     20 H20         33.9685  37.3540  33.5859 H              1 <1>                0.0000
@<TRIPOS>BOND
    1    1    2 1     
    2    1   19 1     
    3    1   20 1     
    4    2    3 1     
    5    2    5 1     
    6    2   10 1     
    7    3    4 3     
    8    4   11 1     
    9    5    6 1     
   10    5    9 1     
   11    5   12 1     
   12    6    7 1     
   13    6   13 1     
   14    6   14 1     
   15    7    8 1     
   16    7   15 1     
   17    7   16 1     
   18    8    9 1     
   19    9   17 1     
   20    9   18 1     
@<TRIPOS>SUBSTRUCTURE
      1 ****           1
@<TRIPOS>SET
DONOR_HYDROGENS      STATIC     ATOMS    <user>   **** ""
2 19 20
ATOM$RED        STATIC     ATOMS    COLORGROUP SYSTEM
2 19 20
@<TRIPOS>COMMENT
> <Gold.Version>
2022.2.0

> <Gold.Id.Protein>
1qkm|1qkm_protein|mol2

> <Gold.Protein.RotatedTorsions>
[  496  491  490  487 ] final   17.75 input  -89.99 | X-H torsion

> <Gold.Protein.ActiveResidues>
 MET295  LEU298  THR299  LEU301  ALA302  GLU305  TRP335  MET336  LEU339  MET340 
 GLY342  LEU343  ARG346  PHE356  ILE373  ILE376  PHE377  LEU380  LYS471  GLY472 
 MET473  HIS475  LEU476  LEU477  ASN478  MET479  VAL484  VAL487 

> <Gold.Protein.RotatedAtoms>
   36.2945   33.9470   42.3475 H   0  0  0  0  0  0  0  0  0  0  0  0  # atno 496  bound_to 491 

> <Gold.Score>
     Score     S(PLP)   S(hbond)     S(cho)   S(metal)  DE(clash)   DE(tors)     intcor
     35.10     -29.57       2.00       0.00       0.00       0.00       0.25       0.01

> <Gold.PLP.Fitness>
35.0967

> <Gold.PLP.PLP>
-29.5721

> <Gold.PLP.part.hbond>
-2.6540

> <Gold.PLP.part.metal>
0.0000

> <Gold.PLP.part.buried>
-3.4320

> <Gold.PLP.part.nonpolar>
-23.2859

> <Gold.PLP.part.repulsive>
0.0492

> <Gold.PLP.ligand.clash>
0.0000

> <Gold.PLP.ligand.torsion>
0.2451

> <Gold.PLP.Chemscore.Hbond>
2.0000

> <Gold.PLP.Chemscore.CHOScore>
0.0000

> <Gold.PLP.Chemscore.Metal>
0.0000

> <Gold.Chemscore.Hbonds>
donor molecule, donor type, donor heavy atom, donor atom, acceptor molecule, acceptor atom, score
      L1  H     1    19       P1  3187  1.00
      L1  H     1    20       P1  3229  1.00

> <Gold.PLP.Chemscore.Internal.Correction>
0.0148

