#       Name:                EN300-153879_i004
#       Creating user name   aseyller
#       Creation time:       Fri Apr 21 13:08:30 2023


#       File generated by GOLD software.
#

@<TRIPOS>MOLECULE
EN300-153879_i004|amine_1|mol2|274|dock19
    20    20     1
SMALL
USER_CHARGES


@<TRIPOS>ATOM
      1 N1          30.5795  35.2363  39.4022 N.3            1 <1>                0.0000
      2 C2          29.8052  36.4538  39.1260 C.3            1 <1>                0.0000
      3 C3          30.3983  37.1633  37.9808 C.1            1 <1>                0.0000
      4 C4          30.8714  37.7294  37.0675 C.1            1 <1>                0.0000
      5 C5          28.3594  36.0752  38.7982 C.3            1 <1>                0.0000
      6 C6          27.5791  35.7477  40.0910 C.3            1 <1>                0.0000
      7 C7          26.4461  36.7974  40.1217 C.3            1 <1>                0.0000
      8 O8          26.2703  37.1911  38.7434 O.3            1 <1>                0.0000
      9 C9          27.6056  37.2842  38.2008 C.3            1 <1>                0.0000
     10 H10         29.8213  37.1014  40.0027 H              1 <1>                0.0000
     11 H11         31.2945  38.2355  36.2506 H              1 <1>                0.0000
     12 H12         28.3335  35.2291  38.1116 H              1 <1>                0.0000
     13 H13         27.1653  34.7405  40.0424 H              1 <1>                0.0000
     14 H14         28.2234  35.8553  40.9636 H              1 <1>                0.0000
     15 H15         25.5290  36.3545  40.5098 H              1 <1>                0.0000
     16 H16         26.7400  37.6551  40.7268 H              1 <1>                0.0000
     17 H17         28.0771  38.2165  38.5113 H              1 <1>                0.0000
     18 H18         27.5790  37.2152  37.1134 H              1 <1>                0.0000
     19 H19         31.0973  35.3249  40.2637 H              1 <1>                0.0000
     20 H20         29.9813  34.4241  39.4217 H              1 <1>                0.0000
@<TRIPOS>BOND
    1    1    2 1     
    2    1   19 1     
    3    1   20 1     
    4    2    3 1     
    5    2    5 1     
    6    2   10 1     
    7    3    4 3     
    8    4   11 1     
    9    5    6 1     
   10    5    9 1     
   11    5   12 1     
   12    6    7 1     
   13    6   13 1     
   14    6   14 1     
   15    7    8 1     
   16    7   15 1     
   17    7   16 1     
   18    8    9 1     
   19    9   17 1     
   20    9   18 1     
@<TRIPOS>SUBSTRUCTURE
      1 ****           1
@<TRIPOS>SET
DONOR_HYDROGENS      STATIC     ATOMS    <user>   **** ""
2 19 20
ATOM$RED        STATIC     ATOMS    COLORGROUP SYSTEM
2 19 20
@<TRIPOS>COMMENT
> <Gold.Version>
2022.2.0

> <Gold.Id.Protein>
1qkm|1qkm_protein|mol2

> <Gold.Protein.RotatedTorsions>
[  496  491  490  487 ] final   58.65 input  -89.99 | X-H torsion

> <Gold.Protein.ActiveResidues>
 MET295  LEU298  THR299  LEU301  ALA302  GLU305  TRP335  MET336  LEU339  MET340 
 GLY342  LEU343  ARG346  PHE356  ILE373  ILE376  PHE377  LEU380  LYS471  GLY472 
 MET473  HIS475  LEU476  LEU477  ASN478  MET479  VAL484  VAL487 

> <Gold.Protein.RotatedAtoms>
   36.5404   33.3366   42.3112 H   0  0  0  0  0  0  0  0  0  0  0  0  # atno 496  bound_to 491 

> <Gold.Score>
     Score     S(PLP)   S(hbond)     S(cho)   S(metal)  DE(clash)   DE(tors)     intcor
     31.06     -28.51       1.00       0.00       0.00       0.00       0.23       0.01

> <Gold.PLP.Fitness>
31.0612

> <Gold.PLP.PLP>
-28.5140

> <Gold.PLP.part.hbond>
-1.0000

> <Gold.PLP.part.metal>
0.0000

> <Gold.PLP.part.buried>
-3.2042

> <Gold.PLP.part.nonpolar>
-24.6797

> <Gold.PLP.part.repulsive>
0.0477

> <Gold.PLP.ligand.clash>
0.0000

> <Gold.PLP.ligand.torsion>
0.2338

> <Gold.PLP.Chemscore.Hbond>
1.0000

> <Gold.PLP.Chemscore.CHOScore>
0.0000

> <Gold.PLP.Chemscore.Metal>
0.0000

> <Gold.Chemscore.Hbonds>
donor molecule, donor type, donor heavy atom, donor atom, acceptor molecule, acceptor atom, score
      L1  H     1    19       P1   470  1.00

> <Gold.PLP.Chemscore.Internal.Correction>
0.0148

