#       Name:                EN300-153879_i004
#       Creating user name   aseyller
#       Creation time:       Fri Apr 21 13:08:21 2023


#       File generated by GOLD software.
#

@<TRIPOS>MOLECULE
EN300-153879_i004|amine_1|mol2|274|dock2
    20    20     1
SMALL
USER_CHARGES


@<TRIPOS>ATOM
      1 N1          29.3533  35.9873  41.3893 N.3            1 <1>                0.0000
      2 C2          28.9721  36.6992  40.1622 C.3            1 <1>                0.0000
      3 C3          29.9539  36.4127  39.1036 C.1            1 <1>                0.0000
      4 C4          30.7370  36.1843  38.2592 C.1            1 <1>                0.0000
      5 C5          27.5860  36.2332  39.7119 C.3            1 <1>                0.0000
      6 C6          26.6266  36.1424  40.9197 C.3            1 <1>                0.0000
      7 C7          25.5071  37.1534  40.5866 C.3            1 <1>                0.0000
      8 O8          25.5329  37.2718  39.1474 O.3            1 <1>                0.0000
      9 C9          26.9327  37.2885  38.7920 C.3            1 <1>                0.0000
     10 H10         28.9495  37.7716  40.3563 H              1 <1>                0.0000
     11 H11         31.4375  35.9799  37.5041 H              1 <1>                0.0000
     12 H12         27.6538  35.2709  39.2047 H              1 <1>                0.0000
     13 H13         26.2182  35.1357  41.0080 H              1 <1>                0.0000
     14 H14         27.1398  36.4294  41.8375 H              1 <1>                0.0000
     15 H15         24.5412  36.7731  40.9188 H              1 <1>                0.0000
     16 H16         25.7162  38.1174  41.0505 H              1 <1>                0.0000
     17 H17         27.3603  38.2732  38.9806 H              1 <1>                0.0000
     18 H18         27.0618  37.0119  37.7457 H              1 <1>                0.0000
     19 H19         28.8726  35.1028  41.4583 H              1 <1>                0.0000
     20 H20         30.3530  35.8604  41.4379 H              1 <1>                0.0000
@<TRIPOS>BOND
    1    1    2 1     
    2    1   19 1     
    3    1   20 1     
    4    2    3 1     
    5    2    5 1     
    6    2   10 1     
    7    3    4 3     
    8    4   11 1     
    9    5    6 1     
   10    5    9 1     
   11    5   12 1     
   12    6    7 1     
   13    6   13 1     
   14    6   14 1     
   15    7    8 1     
   16    7   15 1     
   17    7   16 1     
   18    8    9 1     
   19    9   17 1     
   20    9   18 1     
@<TRIPOS>SUBSTRUCTURE
      1 ****           1
@<TRIPOS>SET
DONOR_HYDROGENS      STATIC     ATOMS    <user>   **** ""
2 19 20
ATOM$RED        STATIC     ATOMS    COLORGROUP SYSTEM
2 19 20
@<TRIPOS>COMMENT
> <Gold.Version>
2022.2.0

> <Gold.Id.Protein>
1qkm|1qkm_protein|mol2

> <Gold.Protein.RotatedTorsions>
[  496  491  490  487 ] final   -2.83 input  -89.99 | X-H torsion

> <Gold.Protein.ActiveResidues>
 MET295  LEU298  THR299  LEU301  ALA302  GLU305  TRP335  MET336  LEU339  MET340 
 GLY342  LEU343  ARG346  PHE356  ILE373  ILE376  PHE377  LEU380  LYS471  GLY472 
 MET473  HIS475  LEU476  LEU477  ASN478  MET479  VAL484  VAL487 

> <Gold.Protein.RotatedAtoms>
   36.2588   34.2534   42.2119 H   0  0  0  0  0  0  0  0  0  0  0  0  # atno 496  bound_to 491 

> <Gold.Score>
     Score     S(PLP)   S(hbond)     S(cho)   S(metal)  DE(clash)   DE(tors)     intcor
     35.73     -33.39       1.00       0.00       0.00       0.00       0.34       0.01

> <Gold.PLP.Fitness>
35.7256

> <Gold.PLP.PLP>
-33.3875

> <Gold.PLP.part.hbond>
-1.0000

> <Gold.PLP.part.metal>
0.0000

> <Gold.PLP.part.buried>
-4.3082

> <Gold.PLP.part.nonpolar>
-28.7635

> <Gold.PLP.part.repulsive>
0.0928

> <Gold.PLP.ligand.clash>
0.0000

> <Gold.PLP.ligand.torsion>
0.3383

> <Gold.PLP.Chemscore.Hbond>
1.0000

> <Gold.PLP.Chemscore.CHOScore>
0.0000

> <Gold.PLP.Chemscore.Metal>
0.0000

> <Gold.Chemscore.Hbonds>
donor molecule, donor type, donor heavy atom, donor atom, acceptor molecule, acceptor atom, score
      L1  H     1    20       P1   470  1.00

> <Gold.PLP.Chemscore.Internal.Correction>
0.0148

