#       Name:                EN300-153879_i004
#       Creating user name   aseyller
#       Creation time:       Fri Apr 21 13:08:29 2023


#       File generated by GOLD software.
#

@<TRIPOS>MOLECULE
EN300-153879_i004|amine_1|mol2|274|dock17
    20    20     1
SMALL
USER_CHARGES


@<TRIPOS>ATOM
      1 N1          27.7473  35.2820  40.7873 N.3            1 <1>                0.0000
      2 C2          27.7774  35.9265  39.4675 C.3            1 <1>                0.0000
      3 C3          26.5398  36.6985  39.2702 C.1            1 <1>                0.0000
      4 C4          25.5527  37.3143  39.1129 C.1            1 <1>                0.0000
      5 C5          28.9827  36.8655  39.3859 C.3            1 <1>                0.0000
      6 C6          30.3000  36.0580  39.4006 C.3            1 <1>                0.0000
      7 C7          30.9641  36.3984  38.0481 C.3            1 <1>                0.0000
      8 O8          30.4053  37.6764  37.6738 O.3            1 <1>                0.0000
      9 C9          29.0068  37.5981  38.0260 C.3            1 <1>                0.0000
     10 H10         27.8576  35.1641  38.6926 H              1 <1>                0.0000
     11 H11         24.6698  37.8651  38.9721 H              1 <1>                0.0000
     12 H12         28.9643  37.5814  40.2075 H              1 <1>                0.0000
     13 H13         30.9338  36.3765  40.2283 H              1 <1>                0.0000
     14 H14         30.0925  34.9899  39.4663 H              1 <1>                0.0000
     15 H15         32.0450  36.4764  38.1650 H              1 <1>                0.0000
     16 H16         30.7159  35.6427  37.3027 H              1 <1>                0.0000
     17 H17         28.4584  37.0265  37.2773 H              1 <1>                0.0000
     18 H18         28.5841  38.5978  38.1261 H              1 <1>                0.0000
     19 H19         27.2727  34.3926  40.7445 H              1 <1>                0.0000
     20 H20         28.6792  35.1770  41.1597 H              1 <1>                0.0000
@<TRIPOS>BOND
    1    1    2 1     
    2    1   19 1     
    3    1   20 1     
    4    2    3 1     
    5    2    5 1     
    6    2   10 1     
    7    3    4 3     
    8    4   11 1     
    9    5    6 1     
   10    5    9 1     
   11    5   12 1     
   12    6    7 1     
   13    6   13 1     
   14    6   14 1     
   15    7    8 1     
   16    7   15 1     
   17    7   16 1     
   18    8    9 1     
   19    9   17 1     
   20    9   18 1     
@<TRIPOS>SUBSTRUCTURE
      1 ****           1
@<TRIPOS>SET
DONOR_HYDROGENS      STATIC     ATOMS    <user>   **** ""
2 19 20
ATOM$RED        STATIC     ATOMS    COLORGROUP SYSTEM
2 19 20
@<TRIPOS>COMMENT
> <Gold.Version>
2022.2.0

> <Gold.Id.Protein>
1qkm|1qkm_protein|mol2

> <Gold.Protein.RotatedTorsions>
[  496  491  490  487 ] final  120.24 input  -89.99 | X-H torsion

> <Gold.Protein.ActiveResidues>
 MET295  LEU298  THR299  LEU301  ALA302  GLU305  TRP335  MET336  LEU339  MET340 
 GLY342  LEU343  ARG346  PHE356  ILE373  ILE376  PHE377  LEU380  LYS471  GLY472 
 MET473  HIS475  LEU476  LEU477  ASN478  MET479  VAL484  VAL487 

> <Gold.Protein.RotatedAtoms>
   37.0824   32.9436   41.6153 H   0  0  0  0  0  0  0  0  0  0  0  0  # atno 496  bound_to 491 

> <Gold.Score>
     Score     S(PLP)   S(hbond)     S(cho)   S(metal)  DE(clash)   DE(tors)     intcor
     29.78     -29.83       0.00       0.00       0.00       0.00       0.03       0.01

> <Gold.PLP.Fitness>
29.7838

> <Gold.PLP.PLP>
-29.8329

> <Gold.PLP.part.hbond>
0.0000

> <Gold.PLP.part.metal>
0.0000

> <Gold.PLP.part.buried>
-2.2353

> <Gold.PLP.part.nonpolar>
-27.9426

> <Gold.PLP.part.repulsive>
0.0000

> <Gold.PLP.ligand.clash>
0.0000

> <Gold.PLP.ligand.torsion>
0.0319

> <Gold.PLP.Chemscore.Hbond>
0.0000

> <Gold.PLP.Chemscore.CHOScore>
0.0000

> <Gold.PLP.Chemscore.Metal>
0.0000

> <Gold.PLP.Chemscore.Internal.Correction>
0.0148

