#       Name:                EN300-153879_i004
#       Creating user name   aseyller
#       Creation time:       Fri Apr 21 13:08:27 2023


#       File generated by GOLD software.
#

@<TRIPOS>MOLECULE
EN300-153879_i004|amine_1|mol2|274|dock13
    20    20     1
SMALL
USER_CHARGES


@<TRIPOS>ATOM
      1 N1          29.5831  36.5685  41.1894 N.3            1 <1>                0.0000
      2 C2          28.7392  35.6635  40.3978 C.3            1 <1>                0.0000
      3 C3          27.3889  36.2360  40.2723 C.1            1 <1>                0.0000
      4 C4          26.3120  36.6926  40.1721 C.1            1 <1>                0.0000
      5 C5          29.3488  35.4847  39.0059 C.3            1 <1>                0.0000
      6 C6          29.6696  36.8582  38.3749 C.3            1 <1>                0.0000
      7 C7          31.1997  36.8266  38.1649 C.3            1 <1>                0.0000
      8 O8          31.5332  35.4233  38.0910 O.3            1 <1>                0.0000
      9 C9          30.7231  34.7858  39.1026 C.3            1 <1>                0.0000
     10 H10         28.6786  34.6953  40.8950 H              1 <1>                0.0000
     11 H11         25.3488  37.1009  40.0825 H              1 <1>                0.0000
     12 H12         28.6740  34.9179  38.3644 H              1 <1>                0.0000
     13 H13         29.1553  36.9693  37.4203 H              1 <1>                0.0000
     14 H14         29.3938  37.6645  39.0545 H              1 <1>                0.0000
     15 H15         31.4656  37.3293  37.2351 H              1 <1>                0.0000
     16 H16         31.7081  37.2935  39.0086 H              1 <1>                0.0000
     17 H17         31.1584  34.9397  40.0899 H              1 <1>                0.0000
     18 H18         30.6228  33.7209  38.8930 H              1 <1>                0.0000
     19 H19         29.0200  37.1851  41.7559 H              1 <1>                0.0000
     20 H20         30.2352  36.0497  41.7583 H              1 <1>                0.0000
@<TRIPOS>BOND
    1    1    2 1     
    2    1   19 1     
    3    1   20 1     
    4    2    3 1     
    5    2    5 1     
    6    2   10 1     
    7    3    4 3     
    8    4   11 1     
    9    5    6 1     
   10    5    9 1     
   11    5   12 1     
   12    6    7 1     
   13    6   13 1     
   14    6   14 1     
   15    7    8 1     
   16    7   15 1     
   17    7   16 1     
   18    8    9 1     
   19    9   17 1     
   20    9   18 1     
@<TRIPOS>SUBSTRUCTURE
      1 ****           1
@<TRIPOS>SET
DONOR_HYDROGENS      STATIC     ATOMS    <user>   **** ""
2 19 20
ATOM$RED        STATIC     ATOMS    COLORGROUP SYSTEM
2 19 20
@<TRIPOS>COMMENT
> <Gold.Version>
2022.2.0

> <Gold.Id.Protein>
1qkm|1qkm_protein|mol2

> <Gold.Protein.RotatedTorsions>
[  496  491  490  487 ] final  128.64 input  -89.99 | X-H torsion

> <Gold.Protein.ActiveResidues>
 MET295  LEU298  THR299  LEU301  ALA302  GLU305  TRP335  MET336  LEU339  MET340 
 GLY342  LEU343  ARG346  PHE356  ILE373  ILE376  PHE377  LEU380  LYS471  GLY472 
 MET473  HIS475  LEU476  LEU477  ASN478  MET479  VAL484  VAL487 

> <Gold.Protein.RotatedAtoms>
   37.1438   32.9658   41.4934 H   0  0  0  0  0  0  0  0  0  0  0  0  # atno 496  bound_to 491 

> <Gold.Score>
     Score     S(PLP)   S(hbond)     S(cho)   S(metal)  DE(clash)   DE(tors)     intcor
     31.92     -29.02       1.00       0.00       0.00       0.00       0.06       0.01

> <Gold.PLP.Fitness>
31.9177

> <Gold.PLP.PLP>
-29.0169

> <Gold.PLP.part.hbond>
-1.0000

> <Gold.PLP.part.metal>
0.0000

> <Gold.PLP.part.buried>
-2.8744

> <Gold.PLP.part.nonpolar>
-25.2455

> <Gold.PLP.part.repulsive>
0.0523

> <Gold.PLP.ligand.clash>
0.0000

> <Gold.PLP.ligand.torsion>
0.0570

> <Gold.PLP.Chemscore.Hbond>
1.0000

> <Gold.PLP.Chemscore.CHOScore>
0.0000

> <Gold.PLP.Chemscore.Metal>
0.0000

> <Gold.Chemscore.Hbonds>
donor molecule, donor type, donor heavy atom, donor atom, acceptor molecule, acceptor atom, score
      L1  H     1    20       P1   470  1.00

> <Gold.PLP.Chemscore.Internal.Correction>
0.0148

