#       Name:                EN300-153879_i004
#       Creating user name   aseyller
#       Creation time:       Fri Apr 21 13:08:26 2023


#       File generated by GOLD software.
#

@<TRIPOS>MOLECULE
EN300-153879_i004|amine_1|mol2|274|dock12
    20    20     1
SMALL
USER_CHARGES


@<TRIPOS>ATOM
      1 N1          25.1998  36.0992  41.2020 N.3            1 <1>                0.0000
      2 C2          26.2111  35.7890  40.1827 C.3            1 <1>                0.0000
      3 C3          26.3148  36.9119  39.2367 C.1            1 <1>                0.0000
      4 C4          26.3975  37.8076  38.4822 C.1            1 <1>                0.0000
      5 C5          27.5652  35.5654  40.8592 C.3            1 <1>                0.0000
      6 C6          28.7035  35.5944  39.8147 C.3            1 <1>                0.0000
      7 C7          29.5878  36.7816  40.2562 C.3            1 <1>                0.0000
      8 O8          29.3201  36.9366  41.6669 O.3            1 <1>                0.0000
      9 C9          27.8964  36.7386  41.8081 C.3            1 <1>                0.0000
     10 H10         25.9202  34.8865  39.6450 H              1 <1>                0.0000
     11 H11         26.4715  38.6086  37.8073 H              1 <1>                0.0000
     12 H12         27.5685  34.6200  41.4016 H              1 <1>                0.0000
     13 H13         29.2710  34.6642  39.8426 H              1 <1>                0.0000
     14 H14         28.3015  35.7680  38.8164 H              1 <1>                0.0000
     15 H15         30.6407  36.5518  40.0927 H              1 <1>                0.0000
     16 H16         29.3074  37.6854  39.7151 H              1 <1>                0.0000
     17 H17         27.3567  37.6357  41.5051 H              1 <1>                0.0000
     18 H18         27.6501  36.4757  42.8367 H              1 <1>                0.0000
     19 H19         25.4451  36.9345  41.7122 H              1 <1>                0.0000
     20 H20         24.2836  36.1841  40.7882 H              1 <1>                0.0000
@<TRIPOS>BOND
    1    1    2 1     
    2    1   19 1     
    3    1   20 1     
    4    2    3 1     
    5    2    5 1     
    6    2   10 1     
    7    3    4 3     
    8    4   11 1     
    9    5    6 1     
   10    5    9 1     
   11    5   12 1     
   12    6    7 1     
   13    6   13 1     
   14    6   14 1     
   15    7    8 1     
   16    7   15 1     
   17    7   16 1     
   18    8    9 1     
   19    9   17 1     
   20    9   18 1     
@<TRIPOS>SUBSTRUCTURE
      1 ****           1
@<TRIPOS>SET
DONOR_HYDROGENS      STATIC     ATOMS    <user>   **** ""
2 19 20
ATOM$RED        STATIC     ATOMS    COLORGROUP SYSTEM
2 19 20
@<TRIPOS>COMMENT
> <Gold.Version>
2022.2.0

> <Gold.Id.Protein>
1qkm|1qkm_protein|mol2

> <Gold.Protein.RotatedTorsions>
[  496  491  490  487 ] final   23.08 input  -89.99 | X-H torsion

> <Gold.Protein.ActiveResidues>
 MET295  LEU298  THR299  LEU301  ALA302  GLU305  TRP335  MET336  LEU339  MET340 
 GLY342  LEU343  ARG346  PHE356  ILE373  ILE376  PHE377  LEU380  LYS471  GLY472 
 MET473  HIS475  LEU476  LEU477  ASN478  MET479  VAL484  VAL487 

> <Gold.Protein.RotatedAtoms>
   36.3144   33.8638   42.3665 H   0  0  0  0  0  0  0  0  0  0  0  0  # atno 496  bound_to 491 

> <Gold.Score>
     Score     S(PLP)   S(hbond)     S(cho)   S(metal)  DE(clash)   DE(tors)     intcor
     34.68     -31.97       0.99       0.00       0.00       0.00       0.14       0.01

> <Gold.PLP.Fitness>
34.6753

> <Gold.PLP.PLP>
-31.9726

> <Gold.PLP.part.hbond>
-1.7010

> <Gold.PLP.part.metal>
0.0000

> <Gold.PLP.part.buried>
-4.3403

> <Gold.PLP.part.nonpolar>
-27.4176

> <Gold.PLP.part.repulsive>
0.2948

> <Gold.PLP.ligand.clash>
0.0000

> <Gold.PLP.ligand.torsion>
0.1429

> <Gold.PLP.Chemscore.Hbond>
0.9913

> <Gold.PLP.Chemscore.CHOScore>
0.0000

> <Gold.PLP.Chemscore.Metal>
0.0000

> <Gold.Chemscore.Hbonds>
donor molecule, donor type, donor heavy atom, donor atom, acceptor molecule, acceptor atom, score
      L1  H     1    20       P1  1131  0.99

> <Gold.PLP.Chemscore.Internal.Correction>
0.0148

