#       Name:                EN300-153879_i004
#       Creating user name   aseyller
#       Creation time:       Fri Apr 21 13:08:23 2023


#       File generated by GOLD software.
#

@<TRIPOS>MOLECULE
EN300-153879_i004|amine_1|mol2|274|dock6
    20    20     1
SMALL
USER_CHARGES


@<TRIPOS>ATOM
      1 N1          29.3739  35.8038  41.2238 N.3            1 <1>                0.0000
      2 C2          29.3998  36.4330  39.8966 C.3            1 <1>                0.0000
      3 C3          30.5152  35.8785  39.1123 C.1            1 <1>                0.0000
      4 C4          31.4049  35.4362  38.4868 C.1            1 <1>                0.0000
      5 C5          28.0801  36.1542  39.1742 C.3            1 <1>                0.0000
      6 C6          26.8821  36.4251  40.1116 C.3            1 <1>                0.0000
      7 C7          26.0989  37.5528  39.4035 C.3            1 <1>                0.0000
      8 O8          26.4636  37.4371  38.0108 O.3            1 <1>                0.0000
      9 C9          27.8791  37.1504  38.0106 C.3            1 <1>                0.0000
     10 H10         29.5330  37.5092  40.0072 H              1 <1>                0.0000
     11 H11         32.2005  35.0406  37.9274 H              1 <1>                0.0000
     12 H12         28.0551  35.1274  38.8093 H              1 <1>                0.0000
     13 H13         26.2634  35.5329  40.2081 H              1 <1>                0.0000
     14 H14         27.2299  36.7575  41.0896 H              1 <1>                0.0000
     15 H15         25.0261  37.4059  39.5283 H              1 <1>                0.0000
     16 H16         26.3976  38.5254  39.7945 H              1 <1>                0.0000
     17 H17         28.4508  38.0613  38.1880 H              1 <1>                0.0000
     18 H18         28.1738  36.6944  37.0655 H              1 <1>                0.0000
     19 H19         30.3094  35.6412  41.5650 H              1 <1>                0.0000
     20 H20         28.8422  36.3594  41.8769 H              1 <1>                0.0000
@<TRIPOS>BOND
    1    1    2 1     
    2    1   19 1     
    3    1   20 1     
    4    2    3 1     
    5    2    5 1     
    6    2   10 1     
    7    3    4 3     
    8    4   11 1     
    9    5    6 1     
   10    5    9 1     
   11    5   12 1     
   12    6    7 1     
   13    6   13 1     
   14    6   14 1     
   15    7    8 1     
   16    7   15 1     
   17    7   16 1     
   18    8    9 1     
   19    9   17 1     
   20    9   18 1     
@<TRIPOS>SUBSTRUCTURE
      1 ****           1
@<TRIPOS>SET
DONOR_HYDROGENS      STATIC     ATOMS    <user>   **** ""
2 19 20
ATOM$RED        STATIC     ATOMS    COLORGROUP SYSTEM
2 19 20
@<TRIPOS>COMMENT
> <Gold.Version>
2022.2.0

> <Gold.Id.Protein>
1qkm|1qkm_protein|mol2

> <Gold.Protein.RotatedTorsions>
[  496  491  490  487 ] final  -17.98 input  -89.99 | X-H torsion

> <Gold.Protein.ActiveResidues>
 MET295  LEU298  THR299  LEU301  ALA302  GLU305  TRP335  MET336  LEU339  MET340 
 GLY342  LEU343  ARG346  PHE356  ILE373  ILE376  PHE377  LEU380  LYS471  GLY472 
 MET473  HIS475  LEU476  LEU477  ASN478  MET479  VAL484  VAL487 

> <Gold.Protein.RotatedAtoms>
   36.2758   34.4470   42.0568 H   0  0  0  0  0  0  0  0  0  0  0  0  # atno 496  bound_to 491 

> <Gold.Score>
     Score     S(PLP)   S(hbond)     S(cho)   S(metal)  DE(clash)   DE(tors)     intcor
     31.64     -29.12       1.00       0.00       0.00       0.00       0.25       0.01

> <Gold.PLP.Fitness>
31.6419

> <Gold.PLP.PLP>
-29.1206

> <Gold.PLP.part.hbond>
-1.0000

> <Gold.PLP.part.metal>
0.0000

> <Gold.PLP.part.buried>
-1.7524

> <Gold.PLP.part.nonpolar>
-26.5330

> <Gold.PLP.part.repulsive>
0.0209

> <Gold.PLP.ligand.clash>
0.0000

> <Gold.PLP.ligand.torsion>
0.2467

> <Gold.PLP.Chemscore.Hbond>
1.0000

> <Gold.PLP.Chemscore.CHOScore>
0.0000

> <Gold.PLP.Chemscore.Metal>
0.0000

> <Gold.Chemscore.Hbonds>
donor molecule, donor type, donor heavy atom, donor atom, acceptor molecule, acceptor atom, score
      L1  H     1    19       P1   470  1.00

> <Gold.PLP.Chemscore.Internal.Correction>
0.0148

