#       Name:                EN300-153879_i004
#       Creating user name   aseyller
#       Creation time:       Fri Apr 21 13:08:28 2023


#       File generated by GOLD software.
#

@<TRIPOS>MOLECULE
EN300-153879_i004|amine_1|mol2|274|dock15
    20    20     1
SMALL
USER_CHARGES


@<TRIPOS>ATOM
      1 N1          26.7774  36.4149  42.2323 N.3            1 <1>                0.0000
      2 C2          26.9157  35.8053  40.9029 C.3            1 <1>                0.0000
      3 C3          26.2857  36.6750  39.8963 C.1            1 <1>                0.0000
      4 C4          25.7830  37.3687  39.0935 C.1            1 <1>                0.0000
      5 C5          28.3998  35.6343  40.5721 C.3            1 <1>                0.0000
      6 C6          28.5801  35.2061  39.0985 C.3            1 <1>                0.0000
      7 C7          29.4019  36.3542  38.4718 C.3            1 <1>                0.0000
      8 O8          30.0951  36.9615  39.5838 O.3            1 <1>                0.0000
      9 C9          29.1339  36.9906  40.6614 C.3            1 <1>                0.0000
     10 H10         26.4277  34.8306  40.8976 H              1 <1>                0.0000
     11 H11         25.3336  37.9892  38.3755 H              1 <1>                0.0000
     12 H12         28.8575  34.9051  41.2406 H              1 <1>                0.0000
     13 H13         29.1292  34.2664  39.0384 H              1 <1>                0.0000
     14 H14         27.6120  35.1161  38.6057 H              1 <1>                0.0000
     15 H15         30.1161  35.9593  37.7494 H              1 <1>                0.0000
     16 H16         28.7405  37.0783  37.9959 H              1 <1>                0.0000
     17 H17         28.4315  37.8122  40.5212 H              1 <1>                0.0000
     18 H18         29.6423  37.0845  41.6209 H              1 <1>                0.0000
     19 H19         26.4082  37.3515  42.1639 H              1 <1>                0.0000
     20 H20         26.2040  35.8433  42.8343 H              1 <1>                0.0000
@<TRIPOS>BOND
    1    1    2 1     
    2    1   19 1     
    3    1   20 1     
    4    2    3 1     
    5    2    5 1     
    6    2   10 1     
    7    3    4 3     
    8    4   11 1     
    9    5    6 1     
   10    5    9 1     
   11    5   12 1     
   12    6    7 1     
   13    6   13 1     
   14    6   14 1     
   15    7    8 1     
   16    7   15 1     
   17    7   16 1     
   18    8    9 1     
   19    9   17 1     
   20    9   18 1     
@<TRIPOS>SUBSTRUCTURE
      1 ****           1
@<TRIPOS>SET
DONOR_HYDROGENS      STATIC     ATOMS    <user>   **** ""
2 19 20
ATOM$RED        STATIC     ATOMS    COLORGROUP SYSTEM
2 19 20
@<TRIPOS>COMMENT
> <Gold.Version>
2022.2.0

> <Gold.Id.Protein>
1qkm|1qkm_protein|mol2

> <Gold.Protein.RotatedTorsions>
[  496  491  490  487 ] final -101.86 input  -89.99 | X-H torsion

> <Gold.Protein.ActiveResidues>
 MET295  LEU298  THR299  LEU301  ALA302  GLU305  TRP335  MET336  LEU339  MET340 
 GLY342  LEU343  ARG346  PHE356  ILE373  ILE376  PHE377  LEU380  LYS471  GLY472 
 MET473  HIS475  LEU476  LEU477  ASN478  MET479  VAL484  VAL487 

> <Gold.Protein.RotatedAtoms>
   36.8667   34.5586   40.9487 H   0  0  0  0  0  0  0  0  0  0  0  0  # atno 496  bound_to 491 

> <Gold.Score>
     Score     S(PLP)   S(hbond)     S(cho)   S(metal)  DE(clash)   DE(tors)     intcor
     35.05     -32.15       0.99       0.00       0.00       0.00       0.05       0.01

> <Gold.PLP.Fitness>
35.0475

> <Gold.PLP.PLP>
-32.1521

> <Gold.PLP.part.hbond>
-0.9756

> <Gold.PLP.part.metal>
0.0000

> <Gold.PLP.part.buried>
-1.8378

> <Gold.PLP.part.nonpolar>
-29.5153

> <Gold.PLP.part.repulsive>
0.0772

> <Gold.PLP.ligand.clash>
0.0000

> <Gold.PLP.ligand.torsion>
0.0477

> <Gold.PLP.Chemscore.Hbond>
0.9920

> <Gold.PLP.Chemscore.CHOScore>
0.0000

> <Gold.PLP.Chemscore.Metal>
0.0000

> <Gold.Chemscore.Hbonds>
donor molecule, donor type, donor heavy atom, donor atom, acceptor molecule, acceptor atom, score
      L1  H     1    20       P1   582  0.99

> <Gold.PLP.Chemscore.Internal.Correction>
0.0148

