#       Name:                EN300-153879_i004
#       Creating user name   aseyller
#       Creation time:       Fri Apr 21 13:08:28 2023


#       File generated by GOLD software.
#

@<TRIPOS>MOLECULE
EN300-153879_i004|amine_1|mol2|274|dock16
    20    20     1
SMALL
USER_CHARGES


@<TRIPOS>ATOM
      1 N1          31.5097  34.3137  39.1448 N.3            1 <1>                0.0000
      2 C2          30.8745  35.4439  38.4541 C.3            1 <1>                0.0000
      3 C3          29.9722  36.1427  39.3836 C.1            1 <1>                0.0000
      4 C4          29.2526  36.7001  40.1252 C.1            1 <1>                0.0000
      5 C5          31.9523  36.4131  37.9641 C.3            1 <1>                0.0000
      6 C6          32.9241  35.6989  36.9983 C.3            1 <1>                0.0000
      7 C7          32.7676  36.4708  35.6694 C.3            1 <1>                0.0000
      8 O8          32.2859  37.7765  36.0556 O.3            1 <1>                0.0000
      9 C9          31.3236  37.5321  37.1045 C.3            1 <1>                0.0000
     10 H10         30.3036  35.0746  37.6021 H              1 <1>                0.0000
     11 H11         28.6089  37.1987  40.7883 H              1 <1>                0.0000
     12 H12         32.4958  36.8370  38.8085 H              1 <1>                0.0000
     13 H13         33.9483  35.7718  37.3640 H              1 <1>                0.0000
     14 H14         32.6368  34.6553  36.8699 H              1 <1>                0.0000
     15 H15         33.7297  36.5555  35.1641 H              1 <1>                0.0000
     16 H16         32.0421  35.9740  35.0252 H              1 <1>                0.0000
     17 H17         30.3767  37.1981  36.6803 H              1 <1>                0.0000
     18 H18         31.1764  38.4320  37.7016 H              1 <1>                0.0000
     19 H19         31.6124  34.5039  40.1304 H              1 <1>                0.0000
     20 H20         30.9929  33.4606  38.9931 H              1 <1>                0.0000
@<TRIPOS>BOND
    1    1    2 1     
    2    1   19 1     
    3    1   20 1     
    4    2    3 1     
    5    2    5 1     
    6    2   10 1     
    7    3    4 3     
    8    4   11 1     
    9    5    6 1     
   10    5    9 1     
   11    5   12 1     
   12    6    7 1     
   13    6   13 1     
   14    6   14 1     
   15    7    8 1     
   16    7   15 1     
   17    7   16 1     
   18    8    9 1     
   19    9   17 1     
   20    9   18 1     
@<TRIPOS>SUBSTRUCTURE
      1 ****           1
@<TRIPOS>SET
DONOR_HYDROGENS      STATIC     ATOMS    <user>   **** ""
2 19 20
ATOM$RED        STATIC     ATOMS    COLORGROUP SYSTEM
2 19 20
@<TRIPOS>COMMENT
> <Gold.Version>
2022.2.0

> <Gold.Id.Protein>
1qkm|1qkm_protein|mol2

> <Gold.Protein.RotatedTorsions>
[  496  491  490  487 ] final  130.31 input  -89.99 | X-H torsion

> <Gold.Protein.ActiveResidues>
 MET295  LEU298  THR299  LEU301  ALA302  GLU305  TRP335  MET336  LEU339  MET340 
 GLY342  LEU343  ARG346  PHE356  ILE373  ILE376  PHE377  LEU380  LYS471  GLY472 
 MET473  HIS475  LEU476  LEU477  ASN478  MET479  VAL484  VAL487 

> <Gold.Protein.RotatedAtoms>
   37.1550   32.9724   41.4693 H   0  0  0  0  0  0  0  0  0  0  0  0  # atno 496  bound_to 491 

> <Gold.Score>
     Score     S(PLP)   S(hbond)     S(cho)   S(metal)  DE(clash)   DE(tors)     intcor
     31.61     -28.63       1.00       0.00       0.00       0.00       0.02       0.01

> <Gold.PLP.Fitness>
31.6054

> <Gold.PLP.PLP>
-28.6272

> <Gold.PLP.part.hbond>
-0.9851

> <Gold.PLP.part.metal>
0.0000

> <Gold.PLP.part.buried>
-2.5844

> <Gold.PLP.part.nonpolar>
-25.5879

> <Gold.PLP.part.repulsive>
0.0223

> <Gold.PLP.ligand.clash>
0.0000

> <Gold.PLP.ligand.torsion>
0.0183

> <Gold.PLP.Chemscore.Hbond>
1.0000

> <Gold.PLP.Chemscore.CHOScore>
0.0000

> <Gold.PLP.Chemscore.Metal>
0.0000

> <Gold.Chemscore.Hbonds>
donor molecule, donor type, donor heavy atom, donor atom, acceptor molecule, acceptor atom, score
      L1  H     1    19       P1   470  1.00

> <Gold.PLP.Chemscore.Internal.Correction>
0.0148

