#       Name:                EN300-153879_i004
#       Creating user name   aseyller
#       Creation time:       Fri Apr 21 13:08:25 2023


#       File generated by GOLD software.
#

@<TRIPOS>MOLECULE
EN300-153879_i004|amine_1|mol2|274|dock10
    20    20     1
SMALL
USER_CHARGES


@<TRIPOS>ATOM
      1 N1          33.5271  36.7107  33.9681 N.3            1 <1>                0.0000
      2 C2          32.9734  37.2931  35.1979 C.3            1 <1>                0.0000
      3 C3          31.5258  37.5028  35.0329 C.1            1 <1>                0.0000
      4 C4          30.3712  37.6702  34.9014 C.1            1 <1>                0.0000
      5 C5          33.2205  36.3405  36.3695 C.3            1 <1>                0.0000
      6 C6          32.7501  36.9796  37.6953 C.3            1 <1>                0.0000
      7 C7          31.6468  36.0245  38.2018 C.3            1 <1>                0.0000
      8 O8          31.9449  34.7545  37.5819 O.3            1 <1>                0.0000
      9 C9          32.3455  35.0748  36.2317 C.3            1 <1>                0.0000
     10 H10         33.4585  38.2485  35.3979 H              1 <1>                0.0000
     11 H11         29.3386  37.8198  34.7836 H              1 <1>                0.0000
     12 H12         34.2757  36.0735  36.4273 H              1 <1>                0.0000
     13 H13         33.5723  37.0263  38.4094 H              1 <1>                0.0000
     14 H14         32.3417  37.9742  37.5161 H              1 <1>                0.0000
     15 H15         31.6900  35.9363  39.2873 H              1 <1>                0.0000
     16 H16         30.6648  36.3787  37.8879 H              1 <1>                0.0000
     17 H17         31.4708  35.2834  35.6158 H              1 <1>                0.0000
     18 H18         32.9256  34.2572  35.8040 H              1 <1>                0.0000
     19 H19         32.7970  36.3146  33.3951 H              1 <1>                0.0000
     20 H20         34.0605  37.3945  33.4526 H              1 <1>                0.0000
@<TRIPOS>BOND
    1    1    2 1     
    2    1   19 1     
    3    1   20 1     
    4    2    3 1     
    5    2    5 1     
    6    2   10 1     
    7    3    4 3     
    8    4   11 1     
    9    5    6 1     
   10    5    9 1     
   11    5   12 1     
   12    6    7 1     
   13    6   13 1     
   14    6   14 1     
   15    7    8 1     
   16    7   15 1     
   17    7   16 1     
   18    8    9 1     
   19    9   17 1     
   20    9   18 1     
@<TRIPOS>SUBSTRUCTURE
      1 ****           1
@<TRIPOS>SET
DONOR_HYDROGENS      STATIC     ATOMS    <user>   **** ""
2 19 20
ATOM$RED        STATIC     ATOMS    COLORGROUP SYSTEM
2 19 20
@<TRIPOS>COMMENT
> <Gold.Version>
2022.2.0

> <Gold.Id.Protein>
1qkm|1qkm_protein|mol2

> <Gold.Protein.RotatedTorsions>
[  496  491  490  487 ] final   95.37 input  -89.99 | X-H torsion

> <Gold.Protein.ActiveResidues>
 MET295  LEU298  THR299  LEU301  ALA302  GLU305  TRP335  MET336  LEU339  MET340 
 GLY342  LEU343  ARG346  PHE356  ILE373  ILE376  PHE377  LEU380  LYS471  GLY472 
 MET473  HIS475  LEU476  LEU477  ASN478  MET479  VAL484  VAL487 

> <Gold.Protein.RotatedAtoms>
   36.8697   32.9903   41.9580 H   0  0  0  0  0  0  0  0  0  0  0  0  # atno 496  bound_to 491 

> <Gold.Score>
     Score     S(PLP)   S(hbond)     S(cho)   S(metal)  DE(clash)   DE(tors)     intcor
     35.50     -29.63       1.99       0.00       0.00       0.00       0.06       0.01

> <Gold.PLP.Fitness>
35.4965

> <Gold.PLP.PLP>
-29.6264

> <Gold.PLP.part.hbond>
-3.0000

> <Gold.PLP.part.metal>
0.0000

> <Gold.PLP.part.buried>
-3.7146

> <Gold.PLP.part.nonpolar>
-23.5899

> <Gold.PLP.part.repulsive>
0.0247

> <Gold.PLP.ligand.clash>
0.0000

> <Gold.PLP.ligand.torsion>
0.0592

> <Gold.PLP.Chemscore.Hbond>
1.9913

> <Gold.PLP.Chemscore.CHOScore>
0.0000

> <Gold.PLP.Chemscore.Metal>
0.0000

> <Gold.Chemscore.Hbonds>
donor molecule, donor type, donor heavy atom, donor atom, acceptor molecule, acceptor atom, score
      L1  H     1    19       P1  3187  0.99
      L1  H     1    20       P1  3229  1.00

> <Gold.PLP.Chemscore.Internal.Correction>
0.0148

