#       Name:                EN300-153879_i004
#       Creating user name   aseyller
#       Creation time:       Fri Apr 21 13:08:21 2023


#       File generated by GOLD software.
#

@<TRIPOS>MOLECULE
EN300-153879_i004|amine_1|mol2|274|dock3
    20    20     1
SMALL
USER_CHARGES


@<TRIPOS>ATOM
      1 N1          29.0473  36.0021  42.0957 N.3            1 <1>                0.0000
      2 C2          27.9847  35.5409  41.1923 C.3            1 <1>                0.0000
      3 C3          26.7940  36.3896  41.3615 C.1            1 <1>                0.0000
      4 C4          25.8443  37.0664  41.4964 C.1            1 <1>                0.0000
      5 C5          28.4722  35.6290  39.7446 C.3            1 <1>                0.0000
      6 C6          27.2754  35.6004  38.7677 C.3            1 <1>                0.0000
      7 C7          27.3615  36.9544  38.0290 C.3            1 <1>                0.0000
      8 O8          28.7478  37.3451  38.1348 O.3            1 <1>                0.0000
      9 C9          29.1397  36.9970  39.4806 C.3            1 <1>                0.0000
     10 H10         27.7307  34.5073  41.4278 H              1 <1>                0.0000
     11 H11         24.9948  37.6718  41.6171 H              1 <1>                0.0000
     12 H12         29.1638  34.8156  39.5254 H              1 <1>                0.0000
     13 H13         27.3767  34.7742  38.0639 H              1 <1>                0.0000
     14 H14         26.3365  35.5234  39.3160 H              1 <1>                0.0000
     15 H15         27.0798  36.8345  36.9829 H              1 <1>                0.0000
     16 H16         26.7213  37.6920  38.5131 H              1 <1>                0.0000
     17 H17         28.7723  37.7411  40.1872 H              1 <1>                0.0000
     18 H18         30.2239  36.9097  39.5496 H              1 <1>                0.0000
     19 H19         29.8485  35.3902  42.0537 H              1 <1>                0.0000
     20 H20         29.3086  36.9547  41.8899 H              1 <1>                0.0000
@<TRIPOS>BOND
    1    1    2 1     
    2    1   19 1     
    3    1   20 1     
    4    2    3 1     
    5    2    5 1     
    6    2   10 1     
    7    3    4 3     
    8    4   11 1     
    9    5    6 1     
   10    5    9 1     
   11    5   12 1     
   12    6    7 1     
   13    6   13 1     
   14    6   14 1     
   15    7    8 1     
   16    7   15 1     
   17    7   16 1     
   18    8    9 1     
   19    9   17 1     
   20    9   18 1     
@<TRIPOS>SUBSTRUCTURE
      1 ****           1
@<TRIPOS>SET
DONOR_HYDROGENS      STATIC     ATOMS    <user>   **** ""
2 19 20
ATOM$RED        STATIC     ATOMS    COLORGROUP SYSTEM
2 19 20
@<TRIPOS>COMMENT
> <Gold.Version>
2022.2.0

> <Gold.Id.Protein>
1qkm|1qkm_protein|mol2

> <Gold.Protein.RotatedTorsions>
[  496  491  490  487 ] final  -27.92 input  -89.99 | X-H torsion

> <Gold.Protein.ActiveResidues>
 MET295  LEU298  THR299  LEU301  ALA302  GLU305  TRP335  MET336  LEU339  MET340 
 GLY342  LEU343  ARG346  PHE356  ILE373  ILE376  PHE377  LEU380  LYS471  GLY472 
 MET473  HIS475  LEU476  LEU477  ASN478  MET479  VAL484  VAL487 

> <Gold.Protein.RotatedAtoms>
   36.3066   34.5518   41.9352 H   0  0  0  0  0  0  0  0  0  0  0  0  # atno 496  bound_to 491 

> <Gold.Score>
     Score     S(PLP)   S(hbond)     S(cho)   S(metal)  DE(clash)   DE(tors)     intcor
     35.79     -33.26       1.00       0.00       0.00       0.00       0.25       0.01

> <Gold.PLP.Fitness>
35.7892

> <Gold.PLP.PLP>
-33.2646

> <Gold.PLP.part.hbond>
-1.0000

> <Gold.PLP.part.metal>
0.0000

> <Gold.PLP.part.buried>
-2.1079

> <Gold.PLP.part.nonpolar>
-30.1018

> <Gold.PLP.part.repulsive>
0.0000

> <Gold.PLP.ligand.clash>
0.0000

> <Gold.PLP.ligand.torsion>
0.2451

> <Gold.PLP.Chemscore.Hbond>
1.0000

> <Gold.PLP.Chemscore.CHOScore>
0.0000

> <Gold.PLP.Chemscore.Metal>
0.0000

> <Gold.Chemscore.Hbonds>
donor molecule, donor type, donor heavy atom, donor atom, acceptor molecule, acceptor atom, score
      L1  H     1    19       P1   470  1.00

> <Gold.PLP.Chemscore.Internal.Correction>
0.0148

