#       Name:                EN300-153879_i004
#       Creating user name   aseyller
#       Creation time:       Fri Apr 21 13:08:23 2023


#       File generated by GOLD software.
#

@<TRIPOS>MOLECULE
EN300-153879_i004|amine_1|mol2|274|dock7
    20    20     1
SMALL
USER_CHARGES


@<TRIPOS>ATOM
      1 N1          30.0150  35.4893  39.9747 N.3            1 <1>                0.0000
      2 C2          29.1028  36.6079  39.7014 C.3            1 <1>                0.0000
      3 C3          29.5264  37.2973  38.4718 C.1            1 <1>                0.0000
      4 C4          29.8642  37.8473  37.4911 C.1            1 <1>                0.0000
      5 C5          27.6802  36.0738  39.5224 C.3            1 <1>                0.0000
      6 C6          27.0076  35.8539  40.8960 C.3            1 <1>                0.0000
      7 C7          25.7891  36.8030  40.8735 C.3            1 <1>                0.0000
      8 O8          25.5001  36.9995  39.4722 O.3            1 <1>                0.0000
      9 C9          26.7884  37.1299  38.8326 C.3            1 <1>                0.0000
     10 H10         29.1256  37.3078  40.5367 H              1 <1>                0.0000
     11 H11         30.1664  38.3392  36.6140 H              1 <1>                0.0000
     12 H12         27.6907  35.1466  38.9494 H              1 <1>                0.0000
     13 H13         26.6834  34.8185  41.0010 H              1 <1>                0.0000
     14 H14         27.6887  36.1255  41.7026 H              1 <1>                0.0000
     15 H15         24.9389  36.3410  41.3752 H              1 <1>                0.0000
     16 H16         26.0393  37.7529  41.3462 H              1 <1>                0.0000
     17 H17         27.1918  38.1298  38.9922 H              1 <1>                0.0000
     18 H18         26.7059  36.9189  37.7664 H              1 <1>                0.0000
     19 H19         30.6207  35.6989  40.7540 H              1 <1>                0.0000
     20 H20         29.5021  34.6353  40.1348 H              1 <1>                0.0000
@<TRIPOS>BOND
    1    1    2 1     
    2    1   19 1     
    3    1   20 1     
    4    2    3 1     
    5    2    5 1     
    6    2   10 1     
    7    3    4 3     
    8    4   11 1     
    9    5    6 1     
   10    5    9 1     
   11    5   12 1     
   12    6    7 1     
   13    6   13 1     
   14    6   14 1     
   15    7    8 1     
   16    7   15 1     
   17    7   16 1     
   18    8    9 1     
   19    9   17 1     
   20    9   18 1     
@<TRIPOS>SUBSTRUCTURE
      1 ****           1
@<TRIPOS>SET
DONOR_HYDROGENS      STATIC     ATOMS    <user>   **** ""
2 19 20
ATOM$RED        STATIC     ATOMS    COLORGROUP SYSTEM
2 19 20
@<TRIPOS>COMMENT
> <Gold.Version>
2022.2.0

> <Gold.Id.Protein>
1qkm|1qkm_protein|mol2

> <Gold.Protein.RotatedTorsions>
[  496  491  490  487 ] final -170.77 input  -89.99 | X-H torsion

> <Gold.Protein.ActiveResidues>
 MET295  LEU298  THR299  LEU301  ALA302  GLU305  TRP335  MET336  LEU339  MET340 
 GLY342  LEU343  ARG346  PHE356  ILE373  ILE376  PHE377  LEU380  LYS471  GLY472 
 MET473  HIS475  LEU476  LEU477  ASN478  MET479  VAL484  VAL487 

> <Gold.Protein.RotatedAtoms>
   37.3060   33.5974   40.8005 H   0  0  0  0  0  0  0  0  0  0  0  0  # atno 496  bound_to 491 

> <Gold.Score>
     Score     S(PLP)   S(hbond)     S(cho)   S(metal)  DE(clash)   DE(tors)     intcor
     35.21     -32.92       1.00       0.00       0.00       0.00       0.36       0.01

> <Gold.PLP.Fitness>
35.2142

> <Gold.PLP.PLP>
-32.9249

> <Gold.PLP.part.hbond>
-1.0000

> <Gold.PLP.part.metal>
0.0000

> <Gold.PLP.part.buried>
-3.4357

> <Gold.PLP.part.nonpolar>
-28.8777

> <Gold.PLP.part.repulsive>
0.0978

> <Gold.PLP.ligand.clash>
0.0000

> <Gold.PLP.ligand.torsion>
0.3627

> <Gold.PLP.Chemscore.Hbond>
1.0000

> <Gold.PLP.Chemscore.CHOScore>
0.0000

> <Gold.PLP.Chemscore.Metal>
0.0000

> <Gold.Chemscore.Hbonds>
donor molecule, donor type, donor heavy atom, donor atom, acceptor molecule, acceptor atom, score
      L1  H     1    19       P1   470  1.00

> <Gold.PLP.Chemscore.Internal.Correction>
0.0148

