#       Name:                EN300-153879_i004
#       Creating user name   aseyller
#       Creation time:       Fri Apr 21 13:08:29 2023


#       File generated by GOLD software.
#

@<TRIPOS>MOLECULE
EN300-153879_i004|amine_1|mol2|274|dock18
    20    20     1
SMALL
USER_CHARGES


@<TRIPOS>ATOM
      1 N1          29.1352  35.6953  41.7278 N.3            1 <1>                0.0000
      2 C2          28.6596  35.8256  40.3441 C.3            1 <1>                0.0000
      3 C3          27.2762  36.3284  40.3461 C.1            1 <1>                0.0000
      4 C4          26.1728  36.7296  40.3476 C.1            1 <1>                0.0000
      5 C5          29.5574  36.8058  39.5863 C.3            1 <1>                0.0000
      6 C6          30.8419  36.0981  39.0997 C.3            1 <1>                0.0000
      7 C7          30.7788  36.2220  37.5612 C.3            1 <1>                0.0000
      8 O8          29.9389  37.3714  37.3176 O.3            1 <1>                0.0000
      9 C9          28.8702  37.2735  38.2842 C.3            1 <1>                0.0000
     10 H10         28.6915  34.8517  39.8556 H              1 <1>                0.0000
     11 H11         25.1860  37.0884  40.3490 H              1 <1>                0.0000
     12 H12         29.8070  37.6592  40.2168 H              1 <1>                0.0000
     13 H13         31.7264  36.6032  39.4876 H              1 <1>                0.0000
     14 H14         30.8373  35.0500  39.3990 H              1 <1>                0.0000
     15 H15         31.7756  36.3870  37.1525 H              1 <1>                0.0000
     16 H16         30.3329  35.3273  37.1265 H              1 <1>                0.0000
     17 H17         28.1317  36.5401  37.9604 H              1 <1>                0.0000
     18 H18         28.4010  38.2463  38.4311 H              1 <1>                0.0000
     19 H19         28.5143  35.1136  42.2703 H              1 <1>                0.0000
     20 H20         30.0789  35.3393  41.7537 H              1 <1>                0.0000
@<TRIPOS>BOND
    1    1    2 1     
    2    1   19 1     
    3    1   20 1     
    4    2    3 1     
    5    2    5 1     
    6    2   10 1     
    7    3    4 3     
    8    4   11 1     
    9    5    6 1     
   10    5    9 1     
   11    5   12 1     
   12    6    7 1     
   13    6   13 1     
   14    6   14 1     
   15    7    8 1     
   16    7   15 1     
   17    7   16 1     
   18    8    9 1     
   19    9   17 1     
   20    9   18 1     
@<TRIPOS>SUBSTRUCTURE
      1 ****           1
@<TRIPOS>SET
DONOR_HYDROGENS      STATIC     ATOMS    <user>   **** ""
2 19 20
ATOM$RED        STATIC     ATOMS    COLORGROUP SYSTEM
2 19 20
@<TRIPOS>COMMENT
> <Gold.Version>
2022.2.0

> <Gold.Id.Protein>
1qkm|1qkm_protein|mol2

> <Gold.Protein.RotatedTorsions>
[  496  491  490  487 ] final  -40.22 input  -89.99 | X-H torsion

> <Gold.Protein.ActiveResidues>
 MET295  LEU298  THR299  LEU301  ALA302  GLU305  TRP335  MET336  LEU339  MET340 
 GLY342  LEU343  ARG346  PHE356  ILE373  ILE376  PHE377  LEU380  LYS471  GLY472 
 MET473  HIS475  LEU476  LEU477  ASN478  MET479  VAL484  VAL487 

> <Gold.Protein.RotatedAtoms>
   36.3645   34.6514   41.7692 H   0  0  0  0  0  0  0  0  0  0  0  0  # atno 496  bound_to 491 

> <Gold.Score>
     Score     S(PLP)   S(hbond)     S(cho)   S(metal)  DE(clash)   DE(tors)     intcor
     31.41     -29.08       1.00       0.00       0.00       0.00       0.34       0.01

> <Gold.PLP.Fitness>
31.4074

> <Gold.PLP.PLP>
-29.0786

> <Gold.PLP.part.hbond>
-1.2614

> <Gold.PLP.part.metal>
0.0000

> <Gold.PLP.part.buried>
-3.1910

> <Gold.PLP.part.nonpolar>
-24.6116

> <Gold.PLP.part.repulsive>
0.0000

> <Gold.PLP.ligand.clash>
0.0000

> <Gold.PLP.ligand.torsion>
0.3430

> <Gold.PLP.Chemscore.Hbond>
1.0000

> <Gold.PLP.Chemscore.CHOScore>
0.0000

> <Gold.PLP.Chemscore.Metal>
0.0000

> <Gold.Chemscore.Hbonds>
donor molecule, donor type, donor heavy atom, donor atom, acceptor molecule, acceptor atom, score
      L1  H     1    20       P1   470  1.00

> <Gold.PLP.Chemscore.Internal.Correction>
0.0148

