#       Name:                EN300-153879_i004
#       Creating user name   aseyller
#       Creation time:       Fri Apr 21 13:08:24 2023


#       File generated by GOLD software.
#

@<TRIPOS>MOLECULE
EN300-153879_i004|amine_1|mol2|274|dock8
    20    20     1
SMALL
USER_CHARGES


@<TRIPOS>ATOM
      1 N1          28.2036  35.3036  41.7990 N.3            1 <1>                0.0000
      2 C2          27.5995  35.8431  40.5734 C.3            1 <1>                0.0000
      3 C3          26.4165  36.6466  40.9220 C.1            1 <1>                0.0000
      4 C4          25.4730  37.2875  41.2000 C.1            1 <1>                0.0000
      5 C5          28.6185  36.7241  39.8476 C.3            1 <1>                0.0000
      6 C6          29.9705  35.9884  39.7116 C.3            1 <1>                0.0000
      7 C7          30.1864  35.8788  38.1860 C.3            1 <1>                0.0000
      8 O8          29.4031  36.9543  37.6242 O.3            1 <1>                0.0000
      9 C9          28.1774  36.9717  38.3880 C.3            1 <1>                0.0000
     10 H10         27.3015  35.0209  39.9227 H              1 <1>                0.0000
     11 H11         24.6290  37.8607  41.4486 H              1 <1>                0.0000
     12 H12         28.7492  37.6690  40.3750 H              1 <1>                0.0000
     13 H13         30.7699  36.5710  40.1696 H              1 <1>                0.0000
     14 H14         29.9130  34.9972  40.1615 H              1 <1>                0.0000
     15 H15         31.2405  36.0092  37.9415 H              1 <1>                0.0000
     16 H16         29.8274  34.9167  37.8202 H              1 <1>                0.0000
     17 H17         27.5105  36.1774  38.0532 H              1 <1>                0.0000
     18 H18         27.6885  37.9417  38.2987 H              1 <1>                0.0000
     19 H19         28.8868  35.9427  42.1769 H              1 <1>                0.0000
     20 H20         27.4963  35.0836  42.4841 H              1 <1>                0.0000
@<TRIPOS>BOND
    1    1    2 1     
    2    1   19 1     
    3    1   20 1     
    4    2    3 1     
    5    2    5 1     
    6    2   10 1     
    7    3    4 3     
    8    4   11 1     
    9    5    6 1     
   10    5    9 1     
   11    5   12 1     
   12    6    7 1     
   13    6   13 1     
   14    6   14 1     
   15    7    8 1     
   16    7   15 1     
   17    7   16 1     
   18    8    9 1     
   19    9   17 1     
   20    9   18 1     
@<TRIPOS>SUBSTRUCTURE
      1 ****           1
@<TRIPOS>SET
DONOR_HYDROGENS      STATIC     ATOMS    <user>   **** ""
2 19 20
ATOM$RED        STATIC     ATOMS    COLORGROUP SYSTEM
2 19 20
@<TRIPOS>COMMENT
> <Gold.Version>
2022.2.0

> <Gold.Id.Protein>
1qkm|1qkm_protein|mol2

> <Gold.Protein.RotatedTorsions>
[  496  491  490  487 ] final  117.53 input  -89.99 | X-H torsion

> <Gold.Protein.ActiveResidues>
 MET295  LEU298  THR299  LEU301  ALA302  GLU305  TRP335  MET336  LEU339  MET340 
 GLY342  LEU343  ARG346  PHE356  ILE373  ILE376  PHE377  LEU380  LYS471  GLY472 
 MET473  HIS475  LEU476  LEU477  ASN478  MET479  VAL484  VAL487 

> <Gold.Protein.RotatedAtoms>
   37.0612   32.9405   41.6544 H   0  0  0  0  0  0  0  0  0  0  0  0  # atno 496  bound_to 491 

> <Gold.Score>
     Score     S(PLP)   S(hbond)     S(cho)   S(metal)  DE(clash)   DE(tors)     intcor
     32.58     -29.93       1.00       0.00       0.00       0.00       0.18       0.01

> <Gold.PLP.Fitness>
32.5762

> <Gold.PLP.PLP>
-29.9310

> <Gold.PLP.part.hbond>
-1.0000

> <Gold.PLP.part.metal>
0.0000

> <Gold.PLP.part.buried>
-1.7503

> <Gold.PLP.part.nonpolar>
-27.4043

> <Gold.PLP.part.repulsive>
0.0000

> <Gold.PLP.ligand.clash>
0.0000

> <Gold.PLP.ligand.torsion>
0.1848

> <Gold.PLP.Chemscore.Hbond>
1.0000

> <Gold.PLP.Chemscore.CHOScore>
0.0000

> <Gold.PLP.Chemscore.Metal>
0.0000

> <Gold.Chemscore.Hbonds>
donor molecule, donor type, donor heavy atom, donor atom, acceptor molecule, acceptor atom, score
      L1  H     1    20       P1   582  1.00

> <Gold.PLP.Chemscore.Internal.Correction>
0.0148

