#       Name:                EN300-153879_i004
#       Creating user name   aseyller
#       Creation time:       Fri Apr 21 13:08:25 2023


#       File generated by GOLD software.
#

@<TRIPOS>MOLECULE
EN300-153879_i004|amine_1|mol2|274|dock11
    20    20     1
SMALL
USER_CHARGES


@<TRIPOS>ATOM
      1 N1          30.8935  34.9554  39.3976 N.3            1 <1>                0.0000
      2 C2          29.7705  35.8641  39.1311 C.3            1 <1>                0.0000
      3 C3          29.0705  36.1619  40.3913 C.1            1 <1>                0.0000
      4 C4          28.5122  36.3995  41.3963 C.1            1 <1>                0.0000
      5 C5          30.2998  37.1642  38.5222 C.3            1 <1>                0.0000
      6 C6          31.2504  36.8616  37.3422 C.3            1 <1>                0.0000
      7 C7          30.5609  37.5195  36.1265 C.3            1 <1>                0.0000
      8 O8          29.7247  38.5529  36.6911 O.3            1 <1>                0.0000
      9 C9          29.1483  37.9690  37.8797 C.3            1 <1>                0.0000
     10 H10         29.0784  35.3918  38.4338 H              1 <1>                0.0000
     11 H11         28.0128  36.6120  42.2952 H              1 <1>                0.0000
     12 H12         30.8088  37.7600  39.2797 H              1 <1>                0.0000
     13 H13         32.2287  37.3100  37.5154 H              1 <1>                0.0000
     14 H14         31.3433  35.7859  37.1928 H              1 <1>                0.0000
     15 H15         31.3040  37.9553  35.4587 H              1 <1>                0.0000
     16 H16         29.9529  36.7884  35.5936 H              1 <1>                0.0000
     17 H17         28.3238  37.3069  37.6156 H              1 <1>                0.0000
     18 H18         28.8064  38.7501  38.5586 H              1 <1>                0.0000
     19 H19         31.6429  35.1037  38.7384 H              1 <1>                0.0000
     20 H20         31.2216  35.0547  40.3465 H              1 <1>                0.0000
@<TRIPOS>BOND
    1    1    2 1     
    2    1   19 1     
    3    1   20 1     
    4    2    3 1     
    5    2    5 1     
    6    2   10 1     
    7    3    4 3     
    8    4   11 1     
    9    5    6 1     
   10    5    9 1     
   11    5   12 1     
   12    6    7 1     
   13    6   13 1     
   14    6   14 1     
   15    7    8 1     
   16    7   15 1     
   17    7   16 1     
   18    8    9 1     
   19    9   17 1     
   20    9   18 1     
@<TRIPOS>SUBSTRUCTURE
      1 ****           1
@<TRIPOS>SET
DONOR_HYDROGENS      STATIC     ATOMS    <user>   **** ""
2 19 20
ATOM$RED        STATIC     ATOMS    COLORGROUP SYSTEM
2 19 20
@<TRIPOS>COMMENT
> <Gold.Version>
2022.2.0

> <Gold.Id.Protein>
1qkm|1qkm_protein|mol2

> <Gold.Protein.RotatedTorsions>
[  496  491  490  487 ] final -133.35 input  -89.99 | X-H torsion

> <Gold.Protein.ActiveResidues>
 MET295  LEU298  THR299  LEU301  ALA302  GLU305  TRP335  MET336  LEU339  MET340 
 GLY342  LEU343  ARG346  PHE356  ILE373  ILE376  PHE377  LEU380  LYS471  GLY472 
 MET473  HIS475  LEU476  LEU477  ASN478  MET479  VAL484  VAL487 

> <Gold.Protein.RotatedAtoms>
   37.1291   34.1726   40.7384 H   0  0  0  0  0  0  0  0  0  0  0  0  # atno 496  bound_to 491 

> <Gold.Score>
     Score     S(PLP)   S(hbond)     S(cho)   S(metal)  DE(clash)   DE(tors)     intcor
     31.53     -28.85       1.00       0.00       0.00       0.00       0.17       0.01

> <Gold.PLP.Fitness>
31.5311

> <Gold.PLP.PLP>
-28.8513

> <Gold.PLP.part.hbond>
-1.0000

> <Gold.PLP.part.metal>
0.0000

> <Gold.PLP.part.buried>
-2.5977

> <Gold.PLP.part.nonpolar>
-25.9363

> <Gold.PLP.part.repulsive>
0.0000

> <Gold.PLP.ligand.clash>
0.0000

> <Gold.PLP.ligand.torsion>
0.1675

> <Gold.PLP.Chemscore.Hbond>
1.0000

> <Gold.PLP.Chemscore.CHOScore>
0.0000

> <Gold.PLP.Chemscore.Metal>
0.0000

> <Gold.Chemscore.Hbonds>
donor molecule, donor type, donor heavy atom, donor atom, acceptor molecule, acceptor atom, score
      L1  H     1    20       P1   470  1.00

> <Gold.PLP.Chemscore.Internal.Correction>
0.0148

