#       Name:                EN300-153879_i004
#       Creating user name   aseyller
#       Creation time:       Fri Apr 21 13:08:27 2023


#       File generated by GOLD software.
#

@<TRIPOS>MOLECULE
EN300-153879_i004|amine_1|mol2|274|dock14
    20    20     1
SMALL
USER_CHARGES


@<TRIPOS>ATOM
      1 N1          30.0004  35.7472  39.9987 N.3            1 <1>                0.0000
      2 C2          30.9223  35.8283  38.8579 C.3            1 <1>                0.0000
      3 C3          31.4085  34.4799  38.5230 C.1            1 <1>                0.0000
      4 C4          31.7963  33.4044  38.2560 C.1            1 <1>                0.0000
      5 C5          30.1904  36.4206  37.6518 C.3            1 <1>                0.0000
      6 C6          29.5936  37.8013  38.0053 C.3            1 <1>                0.0000
      7 C7          30.2989  38.7747  37.0350 C.3            1 <1>                0.0000
      8 O8          30.7087  37.9525  35.9206 O.3            1 <1>                0.0000
      9 C9          31.1858  36.7232  36.5098 C.3            1 <1>                0.0000
     10 H10         31.7677  36.4652  39.1185 H              1 <1>                0.0000
     11 H11         32.1430  32.4425  38.0172 H              1 <1>                0.0000
     12 H12         29.4084  35.7426  37.3101 H              1 <1>                0.0000
     13 H13         28.5169  37.8065  37.8359 H              1 <1>                0.0000
     14 H14         29.8199  38.0619  39.0393 H              1 <1>                0.0000
     15 H15         29.6058  39.5471  36.7019 H              1 <1>                0.0000
     16 H16         31.1682  39.2248  37.5144 H              1 <1>                0.0000
     17 H17         32.1910  36.8587  36.9086 H              1 <1>                0.0000
     18 H18         31.1739  35.9198  35.7733 H              1 <1>                0.0000
     19 H19         29.3063  35.0296  39.8523 H              1 <1>                0.0000
     20 H20         30.5033  35.5934  40.8598 H              1 <1>                0.0000
@<TRIPOS>BOND
    1    1    2 1     
    2    1   19 1     
    3    1   20 1     
    4    2    3 1     
    5    2    5 1     
    6    2   10 1     
    7    3    4 3     
    8    4   11 1     
    9    5    6 1     
   10    5    9 1     
   11    5   12 1     
   12    6    7 1     
   13    6   13 1     
   14    6   14 1     
   15    7    8 1     
   16    7   15 1     
   17    7   16 1     
   18    8    9 1     
   19    9   17 1     
   20    9   18 1     
@<TRIPOS>SUBSTRUCTURE
      1 ****           1
@<TRIPOS>SET
DONOR_HYDROGENS      STATIC     ATOMS    <user>   **** ""
2 19 20
ATOM$RED        STATIC     ATOMS    COLORGROUP SYSTEM
2 19 20
@<TRIPOS>COMMENT
> <Gold.Version>
2022.2.0

> <Gold.Id.Protein>
1qkm|1qkm_protein|mol2

> <Gold.Protein.RotatedTorsions>
[  496  491  490  487 ] final   31.20 input  -89.99 | X-H torsion

> <Gold.Protein.ActiveResidues>
 MET295  LEU298  THR299  LEU301  ALA302  GLU305  TRP335  MET336  LEU339  MET340 
 GLY342  LEU343  ARG346  PHE356  ILE373  ILE376  PHE377  LEU380  LYS471  GLY472 
 MET473  HIS475  LEU476  LEU477  ASN478  MET479  VAL484  VAL487 

> <Gold.Protein.RotatedAtoms>
   36.3526   33.7366   42.3818 H   0  0  0  0  0  0  0  0  0  0  0  0  # atno 496  bound_to 491 

> <Gold.Score>
     Score     S(PLP)   S(hbond)     S(cho)   S(metal)  DE(clash)   DE(tors)     intcor
     31.88     -28.96       1.00       0.00       0.00       0.00       0.05       0.01

> <Gold.PLP.Fitness>
31.8792

> <Gold.PLP.PLP>
-28.9562

> <Gold.PLP.part.hbond>
-1.0000

> <Gold.PLP.part.metal>
0.0000

> <Gold.PLP.part.buried>
-2.3903

> <Gold.PLP.part.nonpolar>
-25.7640

> <Gold.PLP.part.repulsive>
0.0000

> <Gold.PLP.ligand.clash>
0.0000

> <Gold.PLP.ligand.torsion>
0.0459

> <Gold.PLP.Chemscore.Hbond>
1.0000

> <Gold.PLP.Chemscore.CHOScore>
0.0000

> <Gold.PLP.Chemscore.Metal>
0.0000

> <Gold.Chemscore.Hbonds>
donor molecule, donor type, donor heavy atom, donor atom, acceptor molecule, acceptor atom, score
      L1  H     1    20       P1   470  1.00

> <Gold.PLP.Chemscore.Internal.Correction>
0.0148

