#       Name:                EN300-153879_i004
#       Creating user name   aseyller
#       Creation time:       Fri Apr 21 13:08:24 2023


#       File generated by GOLD software.
#

@<TRIPOS>MOLECULE
EN300-153879_i004|amine_1|mol2|274|dock9
    20    20     1
SMALL
USER_CHARGES


@<TRIPOS>ATOM
      1 N1          30.5837  35.5723  39.4008 N.3            1 <1>                0.0000
      2 C2          29.1568  35.3711  39.6864 C.3            1 <1>                0.0000
      3 C3          28.7947  36.0984  40.9138 C.1            1 <1>                0.0000
      4 C4          28.5060  36.6785  41.8928 C.1            1 <1>                0.0000
      5 C5          28.3233  35.8982  38.5165 C.3            1 <1>                0.0000
      6 C6          26.8218  35.9043  38.8810 C.3            1 <1>                0.0000
      7 C7          26.4187  37.3926  38.7869 C.3            1 <1>                0.0000
      8 O8          27.3841  37.9803  37.8877 O.3            1 <1>                0.0000
      9 C9          28.6498  37.3837  38.2455 C.3            1 <1>                0.0000
     10 H10         28.9599  34.3077  39.8226 H              1 <1>                0.0000
     11 H11         28.2476  37.1974  42.7683 H              1 <1>                0.0000
     12 H12         28.4973  35.2977  37.6237 H              1 <1>                0.0000
     13 H13         26.2532  35.3087  38.1669 H              1 <1>                0.0000
     14 H14         26.6733  35.5317  39.8945 H              1 <1>                0.0000
     15 H15         25.4126  37.4882  38.3787 H              1 <1>                0.0000
     16 H16         26.4775  37.8643  39.7679 H              1 <1>                0.0000
     17 H17         29.0507  37.8540  39.1432 H              1 <1>                0.0000
     18 H18         29.3575  37.4723  37.4213 H              1 <1>                0.0000
     19 H19         31.1556  35.2326  40.1596 H              1 <1>                0.0000
     20 H20         30.8430  35.1356  38.5290 H              1 <1>                0.0000
@<TRIPOS>BOND
    1    1    2 1     
    2    1   19 1     
    3    1   20 1     
    4    2    3 1     
    5    2    5 1     
    6    2   10 1     
    7    3    4 3     
    8    4   11 1     
    9    5    6 1     
   10    5    9 1     
   11    5   12 1     
   12    6    7 1     
   13    6   13 1     
   14    6   14 1     
   15    7    8 1     
   16    7   15 1     
   17    7   16 1     
   18    8    9 1     
   19    9   17 1     
   20    9   18 1     
@<TRIPOS>SUBSTRUCTURE
      1 ****           1
@<TRIPOS>SET
DONOR_HYDROGENS      STATIC     ATOMS    <user>   **** ""
2 19 20
ATOM$RED        STATIC     ATOMS    COLORGROUP SYSTEM
2 19 20
@<TRIPOS>COMMENT
> <Gold.Version>
2022.2.0

> <Gold.Id.Protein>
1qkm|1qkm_protein|mol2

> <Gold.Protein.RotatedTorsions>
[  496  491  490  487 ] final -164.30 input  -89.99 | X-H torsion

> <Gold.Protein.ActiveResidues>
 MET295  LEU298  THR299  LEU301  ALA302  GLU305  TRP335  MET336  LEU339  MET340 
 GLY342  LEU343  ARG346  PHE356  ILE373  ILE376  PHE377  LEU380  LYS471  GLY472 
 MET473  HIS475  LEU476  LEU477  ASN478  MET479  VAL484  VAL487 

> <Gold.Protein.RotatedAtoms>
   37.2896   33.6964   40.7651 H   0  0  0  0  0  0  0  0  0  0  0  0  # atno 496  bound_to 491 

> <Gold.Score>
     Score     S(PLP)   S(hbond)     S(cho)   S(metal)  DE(clash)   DE(tors)     intcor
     34.70     -31.78       1.00       0.00       0.00       0.00       0.05       0.01

> <Gold.PLP.Fitness>
34.7000

> <Gold.PLP.PLP>
-31.7782

> <Gold.PLP.part.hbond>
-1.0000

> <Gold.PLP.part.metal>
0.0000

> <Gold.PLP.part.buried>
-2.3099

> <Gold.PLP.part.nonpolar>
-28.5925

> <Gold.PLP.part.repulsive>
0.0000

> <Gold.PLP.ligand.clash>
0.0000

> <Gold.PLP.ligand.torsion>
0.0464

> <Gold.PLP.Chemscore.Hbond>
1.0000

> <Gold.PLP.Chemscore.CHOScore>
0.0000

> <Gold.PLP.Chemscore.Metal>
0.0000

> <Gold.Chemscore.Hbonds>
donor molecule, donor type, donor heavy atom, donor atom, acceptor molecule, acceptor atom, score
      L1  H     1    19       P1   470  1.00

> <Gold.PLP.Chemscore.Internal.Correction>
0.0148

