#       Name:                plp ligand
#       Creating user name   aseyller
#       Creation time:       Fri Apr 21 13:08:20 2023


#       File generated by GOLD software.
#

@<TRIPOS>MOLECULE
plp ligand
    20    20     1
SMALL
USER_CHARGES


@<TRIPOS>ATOM
      1 N1           2.0844   1.3424   0.2579 DONACC         1 <1>                0.0000
      2 C2           1.2553   0.3837  -0.4847 NONPOLAR       1 <1>                0.0000
      3 C3           1.3951  -0.9534   0.1147 NONPOLAR       1 <1>                0.0000
      4 C4           1.5067  -2.0199   0.5927 NONPOLAR       1 <1>                0.0000
      5 C5          -0.2098   0.8203  -0.4215 NONPOLAR       1 <1>                0.0000
      6 C6          -1.1046  -0.1730  -1.1962 NONPOLAR       1 <1>                0.0000
      7 C7          -2.0643  -0.7304  -0.1217 NONPOLAR       1 <1>                0.0000
      8 O8          -2.0978   0.2844   0.9054 ACCEPTOR       1 <1>                0.0000
      9 C9          -0.7347   0.7454   1.0295 NONPOLAR       1 <1>                0.0000
     10 H10          1.5802   0.3515  -1.5247                1 <1>                0.0000
     11 H11          1.6065  -2.9737   1.0203                1 <1>                0.0000
     12 H12         -0.3244   1.8284  -0.8198                1 <1>                0.0000
     13 H13         -1.6634   0.3446  -1.9759                1 <1>                0.0000
     14 H14         -0.5032  -0.9750  -1.6243                1 <1>                0.0000
     15 H15         -3.0592  -0.8784  -0.5415                1 <1>                0.0000
     16 H16         -1.6789  -1.6666   0.2823                1 <1>                0.0000
     17 H17         -0.1455   0.0356   1.6100                1 <1>                0.0000
     18 H18         -0.7083   1.7311   1.4939                1 <1>                0.0000
     19 H19          1.8026   1.3905   1.2256                1 <1>                0.0000
     20 H20          3.0634   1.1121   0.1774                1 <1>                0.0000
@<TRIPOS>BOND
    1    1    2 1     
    2    1   19 1     
    3    1   20 1     
    4    2    3 1     
    5    2    5 1     
    6    2   10 1     
    7    3    4 3     
    8    4   11 1     
    9    5    6 1     
   10    5    9 1     
   11    5   12 1     
   12    6    7 1     
   13    6   13 1     
   14    6   14 1     
   15    7    8 1     
   16    7   15 1     
   17    7   16 1     
   18    8    9 1     
   19    9   17 1     
   20    9   18 1     
@<TRIPOS>SUBSTRUCTURE
      1 ****           1
@<TRIPOS>SET
DONOR_HYDROGENS      STATIC     ATOMS    <user>   **** ""
2 19 20
ATOM$RED        STATIC     ATOMS    COLORGROUP SYSTEM
2 19 20
