#       Name:                EN300-06567_i001
#       Creating user name   fsindt
#       Creation time:       Tue Feb 28 08:16:54 2023


#       File generated by GOLD software.
#

@<TRIPOS>MOLECULE
EN300-06567_i001|amine_7|mol2|4380|dock18
    25    25     1
SMALL
USER_CHARGES


@<TRIPOS>ATOM
      1 C1          -3.7998 -10.2586   9.9752 C.3            1 <1>                0.0000
      2 N2          -2.5204  -9.5374   9.9446 N.4            1 <1>                1.0000
      3 C3          -1.5097 -10.3014  10.6880 C.3            1 <1>                0.0000
      4 C4          -0.8372 -11.2803   9.7603 C.ar           1 <1>                0.0000
      5 C5          -0.6527 -12.5919  10.1569 C.ar           1 <1>                0.0000
      6 C6          -0.0359 -13.4911   9.3086 C.ar           1 <1>                0.0000
      7 C7           0.3979 -13.0771   8.0575 C.ar           1 <1>                0.0000
      8 O8           1.0044 -13.9599   7.2210 O.3            1 <1>                0.0000
      9 C9           0.6837 -15.3418   7.3931 C.3            1 <1>                0.0000
     10 C10          0.2111 -11.7606   7.6618 C.ar           1 <1>                0.0000
     11 C11         -0.4108 -10.8667   8.5118 C.ar           1 <1>                0.0000
     12 H12         -4.1238 -10.3800  11.0090 H              1 <1>                0.0000
     13 H13         -4.5498  -9.6916   9.4237 H              1 <1>                0.0000
     14 H14         -3.6752 -11.2393   9.5160 H              1 <1>                0.0000
     15 H15         -0.7653  -9.6179  11.0965 H              1 <1>                0.0000
     16 H16         -1.9904 -10.8439  11.5020 H              1 <1>                0.0000
     17 H17         -0.9906 -12.9137  11.1309 H              1 <1>                0.0000
     18 H18          0.1086 -14.5153   9.6191 H              1 <1>                0.0000
     19 H19          1.2344 -15.9360   6.6639 H              1 <1>                0.0000
     20 H20          0.9587 -15.6560   8.3999 H              1 <1>                0.0000
     21 H21         -0.3865 -15.4874   7.2466 H              1 <1>                0.0000
     22 H22          0.5482 -11.4358   6.6885 H              1 <1>                0.0000
     23 H23         -0.5567  -9.8418   8.2040 H              1 <1>                0.0000
     24 H24         -2.2205  -9.4250   8.9878 H              1 <1>                0.0000
     25 H25         -2.6357  -8.6297  10.3698 H              1 <1>                0.0000
@<TRIPOS>BOND
    1    1    2 1     
    2    1   12 1     
    3    1   13 1     
    4    1   14 1     
    5    2    3 1     
    6    2   24 1     
    7    2   25 1     
    8    3    4 1     
    9    3   15 1     
   10    3   16 1     
   11    4    5 ar    
   12    4   11 ar    
   13    5    6 ar    
   14    5   17 1     
   15    6    7 ar    
   16    6   18 1     
   17    7    8 1     
   18    7   10 ar    
   19    8    9 1     
   20    9   19 1     
   21    9   20 1     
   22    9   21 1     
   23   10   11 ar    
   24   10   22 1     
   25   11   23 1     
@<TRIPOS>SUBSTRUCTURE
      1 ****           1
@<TRIPOS>SET
DONOR_HYDROGENS      STATIC     ATOMS    <user>   **** ""
2 24 25
ATOM$RED        STATIC     ATOMS    COLORGROUP SYSTEM
2 24 25
@<TRIPOS>COMMENT
> <Gold.Version>
2022.2.0

> <Gold.Id.Protein>
3pbl|protein|mol2

> <Gold.Protein.RotatedTorsions>
[ 1303 1298 1297 1294 ] final  -30.71 input  179.99 | X-H torsion
[ 2461 2456 2455 2452 ] final  -94.58 input   30.03 | X-H torsion
[ 2515 2510 2509 2506 ] final  146.91 input  -89.99 | X-H torsion
[ 3721 3712 3711 3710 ] final -115.59 input -179.91 | X-H torsion
[ 3841 3832 3831 3830 ] final  157.32 input -179.91 | X-H torsion
[ 3767 3762 3761 3758 ] final  155.00 input  -89.99 | X-H torsion
[ 2472 2467 2466 2463 ] final  -49.98 input  -89.97 | X-H torsion

> <Gold.Protein.ActiveResidues>
 VAL82   VAL86   LEU89   PHE106  VAL107  ASP110  VAL111  MET112  CYS114  THR115 
 CYS181  SER182  ILE183  PHE188  VAL189  ILE190  SER192  SER193  SER196  TRP342 
 PHE345  PHE346  HIS349  VAL350  TYR365  THR369  GLY372  TYR373 

> <Gold.Protein.RotatedAtoms>
    3.3389   -9.4212    3.8394 H   0  0  0  0  0  0  0  0  0  0  0  0  # atno 1303 bound_to 1298
    0.3728   -8.9559    7.7641 H   0  0  0  0  0  0  0  0  0  0  0  0  # atno 2461 bound_to 2456
   -3.6692   -5.1299    8.8171 H   0  0  0  0  0  0  0  0  0  0  0  0  # atno 2472 bound_to 2467
    2.1292   -8.5957    6.0780 H   0  0  0  0  0  0  0  0  0  0  0  0  # atno 2515 bound_to 2510
   -3.1934  -16.6904   14.4572 H   0  0  0  0  0  0  0  0  0  0  0  0  # atno 3721 bound_to 3712
   -3.9341  -22.8391   11.3496 H   0  0  0  0  0  0  0  0  0  0  0  0  # atno 3767 bound_to 3762
    3.1015  -20.3188    8.5631 H   0  0  0  0  0  0  0  0  0  0  0  0  # atno 3841 bound_to 3832
    4.6176   -8.5732    4.3983 LP  0  0  0  0  0  0  0  0  0  0  0  0  # atno 4297 bound_to 1298
    4.4060  -10.1269    4.8541 LP  0  0  0  0  0  0  0  0  0  0  0  0  # atno 4298 bound_to 1298
    1.9209   -8.9354    8.2840 LP  0  0  0  0  0  0  0  0  0  0  0  0  # atno 4299 bound_to 2456
    1.4437   -7.9170    7.1000 LP  0  0  0  0  0  0  0  0  0  0  0  0  # atno 4300 bound_to 2456
    2.3531   -7.4338    4.9529 LP  0  0  0  0  0  0  0  0  0  0  0  0  # atno 4301 bound_to 2510
    2.8146   -8.9695    4.6440 LP  0  0  0  0  0  0  0  0  0  0  0  0  # atno 4302 bound_to 2510
   -3.2262  -17.2906   12.9684 LP  0  0  0  0  0  0  0  0  0  0  0  0  # atno 4306 bound_to 3712
   -2.6146  -18.1664   14.2036 LP  0  0  0  0  0  0  0  0  0  0  0  0  # atno 4307 bound_to 3712
    2.0321  -21.0149    9.5368 LP  0  0  0  0  0  0  0  0  0  0  0  0  # atno 4314 bound_to 3832
    1.6145  -19.7191    8.6351 LP  0  0  0  0  0  0  0  0  0  0  0  0  # atno 4315 bound_to 3832
   -4.9163  -23.1047   10.0723 LP  0  0  0  0  0  0  0  0  0  0  0  0  # atno 4318 bound_to 3762
   -5.2767  -21.9313   11.1493 LP  0  0  0  0  0  0  0  0  0  0  0  0  # atno 4319 bound_to 3762
   -5.2428   -5.4197    9.1430 LP  0  0  0  0  0  0  0  0  0  0  0  0  # atno 4320 bound_to 2467
   -4.8047   -4.8439    7.6791 LP  0  0  0  0  0  0  0  0  0  0  0  0  # atno 4321 bound_to 2467

> <Gold.Score>
     Score     S(PLP)   S(hbond)     S(cho)   S(metal)  DE(clash)   DE(tors)     intcor
     40.43     -38.14       1.00       0.00       0.00       0.00       0.69       0.67

> <Gold.PLP.Fitness>
40.4336

> <Gold.PLP.PLP>
-38.1406

> <Gold.PLP.part.hbond>
-1.0000

> <Gold.PLP.part.metal>
0.0000

> <Gold.PLP.part.buried>
-2.3224

> <Gold.PLP.part.nonpolar>
-35.5397

> <Gold.PLP.part.repulsive>
0.1676

> <Gold.PLP.ligand.clash>
0.0000

> <Gold.PLP.ligand.torsion>
0.6890

> <Gold.PLP.Chemscore.Hbond>
1.0000

> <Gold.PLP.Chemscore.CHOScore>
0.0000

> <Gold.PLP.Chemscore.Metal>
0.0000

> <Gold.Chemscore.Hbonds>
donor molecule, donor type, donor heavy atom, donor atom, acceptor molecule, acceptor atom, score
      L1  H     2    25       P1  2398  1.00

> <Gold.PLP.Chemscore.Internal.Correction>
0.6709

