#       Name:                EN300-06567_i001
#       Creating user name   fsindt
#       Creation time:       Tue Feb 28 08:16:53 2023


#       File generated by GOLD software.
#

@<TRIPOS>MOLECULE
EN300-06567_i001|amine_7|mol2|4380|dock15
    25    25     1
SMALL
USER_CHARGES


@<TRIPOS>ATOM
      1 C1          -0.6470 -17.9304  11.2193 C.3            1 <1>                0.0000
      2 N2           0.1205 -16.8689  10.5545 N.4            1 <1>                1.0000
      3 C3           0.4438 -15.8162  11.5267 C.3            1 <1>                0.0000
      4 C4           0.2423 -14.4653  10.8900 C.ar           1 <1>                0.0000
      5 C5          -0.7003 -13.5939  11.4037 C.ar           1 <1>                0.0000
      6 C6          -0.8875 -12.3551  10.8215 C.ar           1 <1>                0.0000
      7 C7          -0.1282 -11.9856   9.7207 C.ar           1 <1>                0.0000
      8 O8          -0.3101 -10.7673   9.1466 O.3            1 <1>                0.0000
      9 C9          -1.5935 -10.1596   9.3071 C.3            1 <1>                0.0000
     10 C10          0.8173 -12.8615   9.2076 C.ar           1 <1>                0.0000
     11 C11          1.0041 -14.0970   9.7965 C.ar           1 <1>                0.0000
     12 H12         -1.5695 -17.5132  11.6234 H              1 <1>                0.0000
     13 H13         -0.8869 -18.7115  10.4980 H              1 <1>                0.0000
     14 H14         -0.0542 -18.3541  12.0301 H              1 <1>                0.0000
     15 H15         -0.2091 -15.9099  12.3944 H              1 <1>                0.0000
     16 H16          1.4825 -15.9184  11.8409 H              1 <1>                0.0000
     17 H17         -1.2912 -13.8821  12.2606 H              1 <1>                0.0000
     18 H18         -1.6244 -11.6751  11.2227 H              1 <1>                0.0000
     19 H19         -1.6039  -9.1939   8.8018 H              1 <1>                0.0000
     20 H20         -2.3577 -10.8048   8.8737 H              1 <1>                0.0000
     21 H21         -1.7976 -10.0167  10.3682 H              1 <1>                0.0000
     22 H22          1.4093 -12.5762   8.3505 H              1 <1>                0.0000
     23 H23          1.7403 -14.7791   9.3975 H              1 <1>                0.0000
     24 H24          0.9744 -17.2551  10.1806 H              1 <1>                0.0000
     25 H25         -0.4282 -16.4767   9.8041 H              1 <1>                0.0000
@<TRIPOS>BOND
    1    1    2 1     
    2    1   12 1     
    3    1   13 1     
    4    1   14 1     
    5    2    3 1     
    6    2   24 1     
    7    2   25 1     
    8    3    4 1     
    9    3   15 1     
   10    3   16 1     
   11    4    5 ar    
   12    4   11 ar    
   13    5    6 ar    
   14    5   17 1     
   15    6    7 ar    
   16    6   18 1     
   17    7    8 1     
   18    7   10 ar    
   19    8    9 1     
   20    9   19 1     
   21    9   20 1     
   22    9   21 1     
   23   10   11 ar    
   24   10   22 1     
   25   11   23 1     
@<TRIPOS>SUBSTRUCTURE
      1 ****           1
@<TRIPOS>SET
DONOR_HYDROGENS      STATIC     ATOMS    <user>   **** ""
2 24 25
ATOM$RED        STATIC     ATOMS    COLORGROUP SYSTEM
2 24 25
@<TRIPOS>COMMENT
> <Gold.Version>
2022.2.0

> <Gold.Id.Protein>
3pbl|protein|mol2

> <Gold.Protein.RotatedTorsions>
[ 1303 1298 1297 1294 ] final  162.19 input  179.99 | X-H torsion
[ 2461 2456 2455 2452 ] final -128.95 input   30.03 | X-H torsion
[ 2515 2510 2509 2506 ] final  -77.37 input  -89.99 | X-H torsion
[ 3721 3712 3711 3710 ] final   -5.59 input -179.91 | X-H torsion
[ 3841 3832 3831 3830 ] final  156.09 input -179.91 | X-H torsion
[ 3767 3762 3761 3758 ] final -173.07 input  -89.99 | X-H torsion
[ 2472 2467 2466 2463 ] final   91.35 input  -89.97 | X-H torsion

> <Gold.Protein.ActiveResidues>
 VAL82   VAL86   LEU89   PHE106  VAL107  ASP110  VAL111  MET112  CYS114  THR115 
 CYS181  SER182  ILE183  PHE188  VAL189  ILE190  SER192  SER193  SER196  TRP342 
 PHE345  PHE346  HIS349  VAL350  TYR365  THR369  GLY372  TYR373 

> <Gold.Protein.RotatedAtoms>
    4.9097   -9.1271    4.8168 H   0  0  0  0  0  0  0  0  0  0  0  0  # atno 1303 bound_to 1298
    0.6808   -9.2263    8.1417 H   0  0  0  0  0  0  0  0  0  0  0  0  # atno 2461 bound_to 2456
   -5.1193   -4.9253    7.8066 H   0  0  0  0  0  0  0  0  0  0  0  0  # atno 2472 bound_to 2467
    2.8353   -8.7637    4.4900 H   0  0  0  0  0  0  0  0  0  0  0  0  # atno 2515 bound_to 2510
   -2.5007  -17.9210   14.3177 H   0  0  0  0  0  0  0  0  0  0  0  0  # atno 3721 bound_to 3712
   -4.1613  -22.4483   11.6039 H   0  0  0  0  0  0  0  0  0  0  0  0  # atno 3767 bound_to 3762
    3.1061  -20.3336    8.5735 H   0  0  0  0  0  0  0  0  0  0  0  0  # atno 3841 bound_to 3832
    3.7741  -10.2452    4.4609 LP  0  0  0  0  0  0  0  0  0  0  0  0  # atno 4297 bound_to 1298
    3.6781   -8.7491    3.8136 LP  0  0  0  0  0  0  0  0  0  0  0  0  # atno 4298 bound_to 1298
    2.1521   -8.5387    7.9684 LP  0  0  0  0  0  0  0  0  0  0  0  0  # atno 4299 bound_to 2456
    0.9047   -8.0433    7.0381 LP  0  0  0  0  0  0  0  0  0  0  0  0  # atno 4300 bound_to 2456
    2.2125   -8.8262    5.9980 LP  0  0  0  0  0  0  0  0  0  0  0  0  # atno 4301 bound_to 2510
    2.2488   -7.4090    5.1876 LP  0  0  0  0  0  0  0  0  0  0  0  0  # atno 4302 bound_to 2510
   -3.4717  -16.6437   14.3761 LP  0  0  0  0  0  0  0  0  0  0  0  0  # atno 4306 bound_to 3712
   -3.1689  -17.3925   12.9569 LP  0  0  0  0  0  0  0  0  0  0  0  0  # atno 4307 bound_to 3712
    2.0141  -21.0052    9.5393 LP  0  0  0  0  0  0  0  0  0  0  0  0  # atno 4314 bound_to 3832
    1.6272  -19.7117    8.6207 LP  0  0  0  0  0  0  0  0  0  0  0  0  # atno 4315 bound_to 3832
   -4.4752  -23.3095   10.2524 LP  0  0  0  0  0  0  0  0  0  0  0  0  # atno 4318 bound_to 3762
   -5.4906  -22.1172   10.7150 LP  0  0  0  0  0  0  0  0  0  0  0  0  # atno 4319 bound_to 3762
   -3.6392   -5.0084    8.4913 LP  0  0  0  0  0  0  0  0  0  0  0  0  # atno 4320 bound_to 2467
   -4.9585   -5.4598    9.3411 LP  0  0  0  0  0  0  0  0  0  0  0  0  # atno 4321 bound_to 2467

> <Gold.Score>
     Score     S(PLP)   S(hbond)     S(cho)   S(metal)  DE(clash)   DE(tors)     intcor
     41.80     -33.45       3.00       0.00       0.00       0.00       0.66       0.67

> <Gold.PLP.Fitness>
41.7962

> <Gold.PLP.PLP>
-33.4497

> <Gold.PLP.part.hbond>
-2.0000

> <Gold.PLP.part.metal>
0.0000

> <Gold.PLP.part.buried>
-3.2577

> <Gold.PLP.part.nonpolar>
-29.4511

> <Gold.PLP.part.repulsive>
0.0000

> <Gold.PLP.ligand.clash>
0.0000

> <Gold.PLP.ligand.torsion>
0.6622

> <Gold.PLP.Chemscore.Hbond>
3.0000

> <Gold.PLP.Chemscore.CHOScore>
0.0000

> <Gold.PLP.Chemscore.Metal>
0.0000

> <Gold.Chemscore.Hbonds>
donor molecule, donor type, donor heavy atom, donor atom, acceptor molecule, acceptor atom, score
      L1  H     2    24       P1  1227  2.00
      P1  H  2456  2461       L1     8  1.00

> <Gold.PLP.Chemscore.Internal.Correction>
0.6709

