#       Name:                EN300-06567_i001
#       Creating user name   fsindt
#       Creation time:       Tue Feb 28 08:16:45 2023


#       File generated by GOLD software.
#

@<TRIPOS>MOLECULE
EN300-06567_i001|amine_7|mol2|4380|dock1
    25    25     1
SMALL
USER_CHARGES


@<TRIPOS>ATOM
      1 C1           0.1605 -15.3082   7.8037 C.3            1 <1>                0.0000
      2 N2           0.7066 -15.4179   9.1629 N.4            1 <1>                1.0000
      3 C3           1.3265 -14.1424   9.5460 C.3            1 <1>                0.0000
      4 C4           0.2629 -13.0809   9.6590 C.ar           1 <1>                0.0000
      5 C5           0.2454 -12.0238   8.7680 C.ar           1 <1>                0.0000
      6 C6          -0.7282 -11.0490   8.8698 C.ar           1 <1>                0.0000
      7 C7          -1.6894 -11.1318   9.8669 C.ar           1 <1>                0.0000
      8 O8          -2.6486 -10.1744   9.9687 O.3            1 <1>                0.0000
      9 C9          -3.9128 -10.5767  10.4998 C.3            1 <1>                0.0000
     10 C10         -1.6700 -12.1938  10.7592 C.ar           1 <1>                0.0000
     11 C11         -0.6973 -13.1686  10.6500 C.ar           1 <1>                0.0000
     12 H12          0.9647 -15.0714   7.1070 H              1 <1>                0.0000
     13 H13         -0.2994 -16.2547   7.5194 H              1 <1>                0.0000
     14 H14         -0.5890 -14.5172   7.7760 H              1 <1>                0.0000
     15 H15          1.8292 -14.2567  10.5064 H              1 <1>                0.0000
     16 H16          2.0531 -13.8495   8.7882 H              1 <1>                0.0000
     17 H17          0.9939 -11.9597   7.9920 H              1 <1>                0.0000
     18 H18         -0.7410 -10.2231   8.1740 H              1 <1>                0.0000
     19 H19         -4.5850  -9.7191  10.5266 H              1 <1>                0.0000
     20 H20         -4.3413 -11.3547   9.8680 H              1 <1>                0.0000
     21 H21         -3.7762 -10.9631  11.5098 H              1 <1>                0.0000
     22 H22         -2.4169 -12.2603  11.5365 H              1 <1>                0.0000
     23 H23         -0.6820 -13.9957  11.3444 H              1 <1>                0.0000
     24 H24         -0.0378 -15.6371   9.8078 H              1 <1>                0.0000
     25 H25          1.4004 -16.1501   9.1886 H              1 <1>                0.0000
@<TRIPOS>BOND
    1    1    2 1     
    2    1   12 1     
    3    1   13 1     
    4    1   14 1     
    5    2    3 1     
    6    2   24 1     
    7    2   25 1     
    8    3    4 1     
    9    3   15 1     
   10    3   16 1     
   11    4    5 ar    
   12    4   11 ar    
   13    5    6 ar    
   14    5   17 1     
   15    6    7 ar    
   16    6   18 1     
   17    7    8 1     
   18    7   10 ar    
   19    8    9 1     
   20    9   19 1     
   21    9   20 1     
   22    9   21 1     
   23   10   11 ar    
   24   10   22 1     
   25   11   23 1     
@<TRIPOS>SUBSTRUCTURE
      1 ****           1
@<TRIPOS>SET
DONOR_HYDROGENS      STATIC     ATOMS    <user>   **** ""
2 24 25
ATOM$RED        STATIC     ATOMS    COLORGROUP SYSTEM
2 24 25
@<TRIPOS>COMMENT
> <Gold.Version>
2022.2.0

> <Gold.Id.Protein>
3pbl|protein|mol2

> <Gold.Protein.RotatedTorsions>
[ 1303 1298 1297 1294 ] final   42.58 input  179.99 | X-H torsion
[ 2461 2456 2455 2452 ] final -136.85 input   30.03 | X-H torsion
[ 2515 2510 2509 2506 ] final  -37.35 input  -89.99 | X-H torsion
[ 3721 3712 3711 3710 ] final -163.45 input -179.91 | X-H torsion
[ 3841 3832 3831 3830 ] final  150.24 input -179.91 | X-H torsion
[ 3767 3762 3761 3758 ] final  -74.81 input  -89.99 | X-H torsion
[ 2472 2467 2466 2463 ] final -120.79 input  -89.97 | X-H torsion

> <Gold.Protein.ActiveResidues>
 VAL82   VAL86   LEU89   PHE106  VAL107  ASP110  VAL111  MET112  CYS114  THR115 
 CYS181  SER182  ILE183  PHE188  VAL189  ILE190  SER192  SER193  SER196  TRP342 
 PHE345  PHE346  HIS349  VAL350  TYR365  THR369  GLY372  TYR373 

> <Gold.Protein.RotatedAtoms>
    3.7788  -10.2463    4.4653 H   0  0  0  0  0  0  0  0  0  0  0  0  # atno 1303 bound_to 1298
    0.7851   -9.2597    8.2115 H   0  0  0  0  0  0  0  0  0  0  0  0  # atno 2461 bound_to 2456
   -4.5144   -5.4451    9.4335 H   0  0  0  0  0  0  0  0  0  0  0  0  # atno 2472 bound_to 2467
    2.7544   -8.1368    4.3614 H   0  0  0  0  0  0  0  0  0  0  0  0  # atno 2515 bound_to 2510
   -3.3388  -16.5406   13.7862 H   0  0  0  0  0  0  0  0  0  0  0  0  # atno 3721 bound_to 3712
   -5.3678  -21.9687   11.0138 H   0  0  0  0  0  0  0  0  0  0  0  0  # atno 3767 bound_to 3762
    3.1230  -20.4031    8.6253 H   0  0  0  0  0  0  0  0  0  0  0  0  # atno 3841 bound_to 3832
    3.6737   -8.7534    3.8123 LP  0  0  0  0  0  0  0  0  0  0  0  0  # atno 4297 bound_to 1298
    4.9098   -9.1213    4.8140 LP  0  0  0  0  0  0  0  0  0  0  0  0  # atno 4298 bound_to 1298
    2.1612   -8.4455    7.8785 LP  0  0  0  0  0  0  0  0  0  0  0  0  # atno 4299 bound_to 2456
    0.7913   -8.1032    7.0583 LP  0  0  0  0  0  0  0  0  0  0  0  0  # atno 4300 bound_to 2456
    2.4817   -9.2138    5.5579 LP  0  0  0  0  0  0  0  0  0  0  0  0  # atno 4301 bound_to 2510
    2.0605   -7.6486    5.7564 LP  0  0  0  0  0  0  0  0  0  0  0  0  # atno 4302 bound_to 2510
   -2.8396  -17.9347   13.1657 LP  0  0  0  0  0  0  0  0  0  0  0  0  # atno 4306 bound_to 3712
   -2.8333  -17.6951   14.7810 LP  0  0  0  0  0  0  0  0  0  0  0  0  # atno 4307 bound_to 3712
    1.9304  -20.9554    9.5465 LP  0  0  0  0  0  0  0  0  0  0  0  0  # atno 4314 bound_to 3832
    1.6913  -19.6812    8.5537 LP  0  0  0  0  0  0  0  0  0  0  0  0  # atno 4315 bound_to 3832
   -3.9837  -22.7162   11.4522 LP  0  0  0  0  0  0  0  0  0  0  0  0  # atno 4318 bound_to 3762
   -4.7761  -23.1899   10.1052 LP  0  0  0  0  0  0  0  0  0  0  0  0  # atno 4319 bound_to 3762
   -5.4119   -5.0703    8.1218 LP  0  0  0  0  0  0  0  0  0  0  0  0  # atno 4320 bound_to 2467
   -3.7907   -4.8783    8.0839 LP  0  0  0  0  0  0  0  0  0  0  0  0  # atno 4321 bound_to 2467

> <Gold.Score>
     Score     S(PLP)   S(hbond)     S(cho)   S(metal)  DE(clash)   DE(tors)     intcor
     46.49     -40.67       2.00       0.00       0.00       0.00       0.43       0.68

> <Gold.PLP.Fitness>
46.4929

> <Gold.PLP.PLP>
-40.6725

> <Gold.PLP.part.hbond>
-1.0000

> <Gold.PLP.part.metal>
0.0000

> <Gold.PLP.part.buried>
-4.3430

> <Gold.PLP.part.nonpolar>
-36.3964

> <Gold.PLP.part.repulsive>
0.0746

> <Gold.PLP.ligand.clash>
0.0000

> <Gold.PLP.ligand.torsion>
0.4280

> <Gold.PLP.Chemscore.Hbond>
2.0000

> <Gold.PLP.Chemscore.CHOScore>
0.0000

> <Gold.PLP.Chemscore.Metal>
0.0000

> <Gold.Chemscore.Hbonds>
donor molecule, donor type, donor heavy atom, donor atom, acceptor molecule, acceptor atom, score
      L1  H     2    25       P1  1227  2.00

> <Gold.PLP.Chemscore.Internal.Correction>
0.6763

