#       Name:                EN300-06567_i001
#       Creating user name   fsindt
#       Creation time:       Tue Feb 28 08:16:50 2023


#       File generated by GOLD software.
#

@<TRIPOS>MOLECULE
EN300-06567_i001|amine_7|mol2|4380|dock11
    25    25     1
SMALL
USER_CHARGES


@<TRIPOS>ATOM
      1 C1           1.7451 -16.3017  13.1279 C.3            1 <1>                0.0000
      2 N2           1.7761 -15.7315  11.7745 N.4            1 <1>                1.0000
      3 C3           0.4033 -15.5898  11.2713 C.3            1 <1>                0.0000
      4 C4           0.4263 -14.8810   9.9416 C.ar           1 <1>                0.0000
      5 C5          -0.0833 -15.5051   8.8179 C.ar           1 <1>                0.0000
      6 C6          -0.0628 -14.8577   7.5977 C.ar           1 <1>                0.0000
      7 C7           0.4692 -13.5801   7.5005 C.ar           1 <1>                0.0000
      8 O8           0.4900 -12.9410   6.3013 O.3            1 <1>                0.0000
      9 C9           1.4636 -11.9085   6.1333 C.3            1 <1>                0.0000
     10 C10          0.9793 -12.9559   8.6295 C.ar           1 <1>                0.0000
     11 C11          0.9519 -13.6056   9.8483 C.ar           1 <1>                0.0000
     12 H12          1.2658 -17.2804  13.0990 H              1 <1>                0.0000
     13 H13          2.7637 -16.4070  13.5013 H              1 <1>                0.0000
     14 H14          1.1825 -15.6412  13.7877 H              1 <1>                0.0000
     15 H15         -0.0427 -16.5769  11.1491 H              1 <1>                0.0000
     16 H16         -0.1861 -15.0102  11.9817 H              1 <1>                0.0000
     17 H17         -0.4973 -16.4997   8.8941 H              1 <1>                0.0000
     18 H18         -0.4603 -15.3458   6.7202 H              1 <1>                0.0000
     19 H19          1.3720 -11.4819   5.1345 H              1 <1>                0.0000
     20 H20          1.2991 -11.1294   6.8777 H              1 <1>                0.0000
     21 H21          2.4622 -12.3268   6.2596 H              1 <1>                0.0000
     22 H22          1.3944 -11.9615   8.5563 H              1 <1>                0.0000
     23 H23          1.3487 -13.1199  10.7276 H              1 <1>                0.0000
     24 H24          2.2196 -14.8256  11.8013 H              1 <1>                0.0000
     25 H25          2.2967 -16.3430  11.1637 H              1 <1>                0.0000
@<TRIPOS>BOND
    1    1    2 1     
    2    1   12 1     
    3    1   13 1     
    4    1   14 1     
    5    2    3 1     
    6    2   24 1     
    7    2   25 1     
    8    3    4 1     
    9    3   15 1     
   10    3   16 1     
   11    4    5 ar    
   12    4   11 ar    
   13    5    6 ar    
   14    5   17 1     
   15    6    7 ar    
   16    6   18 1     
   17    7    8 1     
   18    7   10 ar    
   19    8    9 1     
   20    9   19 1     
   21    9   20 1     
   22    9   21 1     
   23   10   11 ar    
   24   10   22 1     
   25   11   23 1     
@<TRIPOS>SUBSTRUCTURE
      1 ****           1
@<TRIPOS>SET
DONOR_HYDROGENS      STATIC     ATOMS    <user>   **** ""
2 24 25
ATOM$RED        STATIC     ATOMS    COLORGROUP SYSTEM
2 24 25
@<TRIPOS>COMMENT
> <Gold.Version>
2022.2.0

> <Gold.Id.Protein>
3pbl|protein|mol2

> <Gold.Protein.RotatedTorsions>
[ 1303 1298 1297 1294 ] final  -46.20 input  179.99 | X-H torsion
[ 2461 2456 2455 2452 ] final -113.95 input   30.03 | X-H torsion
[ 2515 2510 2509 2506 ] final  171.03 input  -89.99 | X-H torsion
[ 3721 3712 3711 3710 ] final  -85.21 input -179.91 | X-H torsion
[ 3841 3832 3831 3830 ] final  109.55 input -179.91 | X-H torsion
[ 3767 3762 3761 3758 ] final   20.03 input  -89.99 | X-H torsion
[ 2472 2467 2466 2463 ] final -153.53 input  -89.97 | X-H torsion

> <Gold.Protein.ActiveResidues>
 VAL82   VAL86   LEU89   PHE106  VAL107  ASP110  VAL111  MET112  CYS114  THR115 
 CYS181  SER182  ILE183  PHE188  VAL189  ILE190  SER192  SER193  SER196  TRP342 
 PHE345  PHE346  HIS349  VAL350  TYR365  THR369  GLY372  TYR373 

> <Gold.Protein.RotatedAtoms>
    3.4000   -9.1799    3.7882 H   0  0  0  0  0  0  0  0  0  0  0  0  # atno 1303 bound_to 1298
    0.5136   -9.1310    7.9882 H   0  0  0  0  0  0  0  0  0  0  0  0  # atno 2461 bound_to 2456
   -5.0297   -5.4552    9.3044 H   0  0  0  0  0  0  0  0  0  0  0  0  # atno 2472 bound_to 2467
    2.2645   -8.9350    5.9306 H   0  0  0  0  0  0  0  0  0  0  0  0  # atno 2515 bound_to 2510
   -2.9896  -17.0065   14.7113 H   0  0  0  0  0  0  0  0  0  0  0  0  # atno 3721 bound_to 3712
   -5.1092  -22.9525   10.0685 H   0  0  0  0  0  0  0  0  0  0  0  0  # atno 3767 bound_to 3762
    3.0182  -20.8109    9.0553 H   0  0  0  0  0  0  0  0  0  0  0  0  # atno 3841 bound_to 3832
    4.7641   -8.7111    4.5536 LP  0  0  0  0  0  0  0  0  0  0  0  0  # atno 4297 bound_to 1298
    4.1984  -10.2304    4.7501 LP  0  0  0  0  0  0  0  0  0  0  0  0  # atno 4298 bound_to 1298
    2.0878   -8.7176    8.1247 LP  0  0  0  0  0  0  0  0  0  0  0  0  # atno 4299 bound_to 2456
    1.1361   -7.9597    7.0353 LP  0  0  0  0  0  0  0  0  0  0  0  0  # atno 4300 bound_to 2456
    2.1982   -7.4242    5.3151 LP  0  0  0  0  0  0  0  0  0  0  0  0  # atno 4301 bound_to 2510
    2.8341   -8.6397    4.4292 LP  0  0  0  0  0  0  0  0  0  0  0  0  # atno 4302 bound_to 2510
   -3.4397  -16.8861   13.1748 LP  0  0  0  0  0  0  0  0  0  0  0  0  # atno 4306 bound_to 3712
   -2.6364  -18.2058   13.7039 LP  0  0  0  0  0  0  0  0  0  0  0  0  # atno 4307 bound_to 3712
    1.4851  -20.4831    9.3993 LP  0  0  0  0  0  0  0  0  0  0  0  0  # atno 4314 bound_to 3832
    2.2578  -19.6825    8.2041 LP  0  0  0  0  0  0  0  0  0  0  0  0  # atno 4315 bound_to 3832
   -5.1111  -21.9153   11.3299 LP  0  0  0  0  0  0  0  0  0  0  0  0  # atno 4318 bound_to 3762
   -3.9072  -23.0073   11.1725 LP  0  0  0  0  0  0  0  0  0  0  0  0  # atno 4319 bound_to 3762
   -5.0526   -4.9032    7.7679 LP  0  0  0  0  0  0  0  0  0  0  0  0  # atno 4320 bound_to 2467
   -3.6347   -5.0352    8.5670 LP  0  0  0  0  0  0  0  0  0  0  0  0  # atno 4321 bound_to 2467

> <Gold.Score>
     Score     S(PLP)   S(hbond)     S(cho)   S(metal)  DE(clash)   DE(tors)     intcor
     41.96     -35.97       2.00       0.00       0.00       0.00       0.34       0.67

> <Gold.PLP.Fitness>
41.9625

> <Gold.PLP.PLP>
-35.9715

> <Gold.PLP.part.hbond>
-1.0000

> <Gold.PLP.part.metal>
0.0000

> <Gold.PLP.part.buried>
-2.5665

> <Gold.PLP.part.nonpolar>
-32.4637

> <Gold.PLP.part.repulsive>
0.0274

> <Gold.PLP.ligand.clash>
0.0000

> <Gold.PLP.ligand.torsion>
0.3399

> <Gold.PLP.Chemscore.Hbond>
2.0000

> <Gold.PLP.Chemscore.CHOScore>
0.0000

> <Gold.PLP.Chemscore.Metal>
0.0000

> <Gold.Chemscore.Hbonds>
donor molecule, donor type, donor heavy atom, donor atom, acceptor molecule, acceptor atom, score
      L1  H     2    25       P1  1227  2.00

> <Gold.PLP.Chemscore.Internal.Correction>
0.6709

