#       Name:                EN300-06567_i001
#       Creating user name   fsindt
#       Creation time:       Tue Feb 28 08:16:46 2023


#       File generated by GOLD software.
#

@<TRIPOS>MOLECULE
EN300-06567_i001|amine_7|mol2|4380|dock3
    25    25     1
SMALL
USER_CHARGES


@<TRIPOS>ATOM
      1 C1           0.3010 -15.6643  11.7671 C.3            1 <1>                0.0000
      2 N2           0.5162 -15.5364  10.3196 N.4            1 <1>                1.0000
      3 C3           1.1432 -14.2398  10.0305 C.3            1 <1>                0.0000
      4 C4           0.0787 -13.1777   9.9322 C.ar           1 <1>                0.0000
      5 C5          -0.8012 -12.9833  10.9809 C.ar           1 <1>                0.0000
      6 C6          -1.7783 -12.0107  10.8931 C.ar           1 <1>                0.0000
      7 C7          -1.8760 -11.2283   9.7516 C.ar           1 <1>                0.0000
      8 O8          -2.8360 -10.2705   9.6630 O.3            1 <1>                0.0000
      9 C9          -4.0400 -10.4887  10.4013 C.3            1 <1>                0.0000
     10 C10         -0.9916 -11.4250   8.7010 C.ar           1 <1>                0.0000
     11 C11         -0.0130 -12.3955   8.7958 C.ar           1 <1>                0.0000
     12 H12         -0.3511 -14.8608  12.1099 H              1 <1>                0.0000
     13 H13         -0.1644 -16.6263  11.9817 H              1 <1>                0.0000
     14 H14          1.2586 -15.6004  12.2839 H              1 <1>                0.0000
     15 H15          1.8375 -13.9853  10.8312 H              1 <1>                0.0000
     16 H16          1.6842 -14.3004   9.0861 H              1 <1>                0.0000
     17 H17         -0.7248 -13.5927  11.8693 H              1 <1>                0.0000
     18 H18         -2.4658 -11.8597  11.7122 H              1 <1>                0.0000
     19 H19         -4.7197  -9.6514  10.2433 H              1 <1>                0.0000
     20 H20         -4.5129 -11.4099  10.0612 H              1 <1>                0.0000
     21 H21         -3.8054 -10.5710  11.4626 H              1 <1>                0.0000
     22 H22         -1.0658 -10.8174   7.8111 H              1 <1>                0.0000
     23 H23          0.6759 -12.5487   7.9783 H              1 <1>                0.0000
     24 H24          1.1198 -16.2801  10.0024 H              1 <1>                0.0000
     25 H25         -0.3703 -15.5954   9.8413 H              1 <1>                0.0000
@<TRIPOS>BOND
    1    1    2 1     
    2    1   12 1     
    3    1   13 1     
    4    1   14 1     
    5    2    3 1     
    6    2   24 1     
    7    2   25 1     
    8    3    4 1     
    9    3   15 1     
   10    3   16 1     
   11    4    5 ar    
   12    4   11 ar    
   13    5    6 ar    
   14    5   17 1     
   15    6    7 ar    
   16    6   18 1     
   17    7    8 1     
   18    7   10 ar    
   19    8    9 1     
   20    9   19 1     
   21    9   20 1     
   22    9   21 1     
   23   10   11 ar    
   24   10   22 1     
   25   11   23 1     
@<TRIPOS>SUBSTRUCTURE
      1 ****           1
@<TRIPOS>SET
DONOR_HYDROGENS      STATIC     ATOMS    <user>   **** ""
2 24 25
ATOM$RED        STATIC     ATOMS    COLORGROUP SYSTEM
2 24 25
@<TRIPOS>COMMENT
> <Gold.Version>
2022.2.0

> <Gold.Id.Protein>
3pbl|protein|mol2

> <Gold.Protein.RotatedTorsions>
[ 1303 1298 1297 1294 ] final -174.61 input  179.99 | X-H torsion
[ 2461 2456 2455 2452 ] final    4.82 input   30.03 | X-H torsion
[ 2515 2510 2509 2506 ] final  165.31 input  -89.99 | X-H torsion
[ 3721 3712 3711 3710 ] final  -22.13 input -179.91 | X-H torsion
[ 3841 3832 3831 3830 ] final  -32.20 input -179.91 | X-H torsion
[ 3767 3762 3761 3758 ] final  -69.74 input  -89.99 | X-H torsion
[ 2472 2467 2466 2463 ] final   31.62 input  -89.97 | X-H torsion

> <Gold.Protein.ActiveResidues>
 VAL82   VAL86   LEU89   PHE106  VAL107  ASP110  VAL111  MET112  CYS114  THR115 
 CYS181  SER182  ILE183  PHE188  VAL189  ILE190  SER192  SER193  SER196  TRP342 
 PHE345  PHE346  HIS349  VAL350  TYR365  THR369  GLY372  TYR373 

> <Gold.Protein.RotatedAtoms>
    4.8240   -8.8068    4.6330 H   0  0  0  0  0  0  0  0  0  0  0  0  # atno 1303 bound_to 1298
    1.1168   -7.9647    7.0336 H   0  0  0  0  0  0  0  0  0  0  0  0  # atno 2461 bound_to 2456
   -4.1900   -4.8025    7.7497 H   0  0  0  0  0  0  0  0  0  0  0  0  # atno 2472 bound_to 2467
    2.2287   -8.8620    5.9781 H   0  0  0  0  0  0  0  0  0  0  0  0  # atno 2515 bound_to 2510
   -2.5631  -17.7815   14.5145 H   0  0  0  0  0  0  0  0  0  0  0  0  # atno 3721 bound_to 3712
   -5.4057  -21.9954   10.9445 H   0  0  0  0  0  0  0  0  0  0  0  0  # atno 3767 bound_to 3762
    1.5668  -20.1051    9.3220 H   0  0  0  0  0  0  0  0  0  0  0  0  # atno 3841 bound_to 3832
    4.0824  -10.2608    4.6812 LP  0  0  0  0  0  0  0  0  0  0  0  0  # atno 4297 bound_to 1298
    3.4555   -9.0539    3.7772 LP  0  0  0  0  0  0  0  0  0  0  0  0  # atno 4298 bound_to 1298
    0.5257   -9.1401    8.0014 LP  0  0  0  0  0  0  0  0  0  0  0  0  # atno 4299 bound_to 2456
    2.0952   -8.7032    8.1128 LP  0  0  0  0  0  0  0  0  0  0  0  0  # atno 4300 bound_to 2456
    2.2322   -7.4117    5.2282 LP  0  0  0  0  0  0  0  0  0  0  0  0  # atno 4301 bound_to 2510
    2.8359   -8.7252    4.4686 LP  0  0  0  0  0  0  0  0  0  0  0  0  # atno 4302 bound_to 2510
   -3.5378  -16.5683   14.1196 LP  0  0  0  0  0  0  0  0  0  0  0  0  # atno 4306 bound_to 3712
   -3.0308  -17.6289   12.9862 LP  0  0  0  0  0  0  0  0  0  0  0  0  # atno 4307 bound_to 3712
    2.6213  -19.8593    8.1373 LP  0  0  0  0  0  0  0  0  0  0  0  0  # atno 4314 bound_to 3832
    2.7981  -21.1216    9.1580 LP  0  0  0  0  0  0  0  0  0  0  0  0  # atno 4315 bound_to 3832
   -4.0167  -22.6537   11.4962 LP  0  0  0  0  0  0  0  0  0  0  0  0  # atno 4318 bound_to 3762
   -4.7053  -23.2257   10.1304 LP  0  0  0  0  0  0  0  0  0  0  0  0  # atno 4319 bound_to 3762
   -4.0218   -5.3361    9.2837 LP  0  0  0  0  0  0  0  0  0  0  0  0  # atno 4320 bound_to 2467
   -5.5050   -5.2549    8.6056 LP  0  0  0  0  0  0  0  0  0  0  0  0  # atno 4321 bound_to 2467

> <Gold.Score>
     Score     S(PLP)   S(hbond)     S(cho)   S(metal)  DE(clash)   DE(tors)     intcor
     44.76     -39.14       2.00       0.00       0.00       0.00       0.53       0.67

> <Gold.PLP.Fitness>
44.7613

> <Gold.PLP.PLP>
-39.1407

> <Gold.PLP.part.hbond>
-1.0000

> <Gold.PLP.part.metal>
0.0000

> <Gold.PLP.part.buried>
-4.1839

> <Gold.PLP.part.nonpolar>
-34.7401

> <Gold.PLP.part.repulsive>
0.0637

> <Gold.PLP.ligand.clash>
0.0000

> <Gold.PLP.ligand.torsion>
0.5251

> <Gold.PLP.Chemscore.Hbond>
2.0000

> <Gold.PLP.Chemscore.CHOScore>
0.0000

> <Gold.PLP.Chemscore.Metal>
0.0000

> <Gold.Chemscore.Hbonds>
donor molecule, donor type, donor heavy atom, donor atom, acceptor molecule, acceptor atom, score
      L1  H     2    24       P1  1227  2.00

> <Gold.PLP.Chemscore.Internal.Correction>
0.6709

