#       Name:                EN300-06567_i001
#       Creating user name   fsindt
#       Creation time:       Tue Feb 28 08:16:51 2023


#       File generated by GOLD software.
#

@<TRIPOS>MOLECULE
EN300-06567_i001|amine_7|mol2|4380|dock13
    25    25     1
SMALL
USER_CHARGES


@<TRIPOS>ATOM
      1 C1          -0.3950 -17.5231  11.5008 C.3            1 <1>                0.0000
      2 N2           0.1997 -16.4618  10.6773 N.4            1 <1>                1.0000
      3 C3           0.5108 -15.3019  11.5232 C.3            1 <1>                0.0000
      4 C4          -0.1239 -14.0675  10.9364 C.ar           1 <1>                0.0000
      5 C5           0.1669 -13.6928   9.6376 C.ar           1 <1>                0.0000
      6 C6          -0.4131 -12.5613   9.0975 C.ar           1 <1>                0.0000
      7 C7          -1.2886 -11.8011   9.8593 C.ar           1 <1>                0.0000
      8 O8          -1.8609 -10.6878   9.3300 O.3            1 <1>                0.0000
      9 C9          -3.1459 -10.3172   9.8334 C.3            1 <1>                0.0000
     10 C10         -1.5792 -12.1794  11.1619 C.ar           1 <1>                0.0000
     11 C11         -1.0004 -13.3146  11.6957 C.ar           1 <1>                0.0000
     12 H12         -1.3109 -17.1543  11.9628 H              1 <1>                0.0000
     13 H13         -0.6259 -18.3837  10.8731 H              1 <1>                0.0000
     14 H14          0.3103 -17.8185  12.2776 H              1 <1>                0.0000
     15 H15          0.1202 -15.4690  12.5270 H              1 <1>                0.0000
     16 H16          1.5912 -15.1669  11.5716 H              1 <1>                0.0000
     17 H17          0.8485 -14.2850   9.0450 H              1 <1>                0.0000
     18 H18         -0.1851 -12.2687   8.0832 H              1 <1>                0.0000
     19 H19         -3.4875  -9.4140   9.3278 H              1 <1>                0.0000
     20 H20         -3.8543 -11.1254   9.6517 H              1 <1>                0.0000
     21 H21         -3.0760 -10.1294  10.9049 H              1 <1>                0.0000
     22 H22         -2.2601 -11.5890  11.7571 H              1 <1>                0.0000
     23 H23         -1.2267 -13.6097  12.7097 H              1 <1>                0.0000
     24 H24          1.0474 -16.8032  10.2497 H              1 <1>                0.0000
     25 H25         -0.4533 -16.1883   9.9583 H              1 <1>                0.0000
@<TRIPOS>BOND
    1    1    2 1     
    2    1   12 1     
    3    1   13 1     
    4    1   14 1     
    5    2    3 1     
    6    2   24 1     
    7    2   25 1     
    8    3    4 1     
    9    3   15 1     
   10    3   16 1     
   11    4    5 ar    
   12    4   11 ar    
   13    5    6 ar    
   14    5   17 1     
   15    6    7 ar    
   16    6   18 1     
   17    7    8 1     
   18    7   10 ar    
   19    8    9 1     
   20    9   19 1     
   21    9   20 1     
   22    9   21 1     
   23   10   11 ar    
   24   10   22 1     
   25   11   23 1     
@<TRIPOS>SUBSTRUCTURE
      1 ****           1
@<TRIPOS>SET
DONOR_HYDROGENS      STATIC     ATOMS    <user>   **** ""
2 24 25
ATOM$RED        STATIC     ATOMS    COLORGROUP SYSTEM
2 24 25
@<TRIPOS>COMMENT
> <Gold.Version>
2022.2.0

> <Gold.Id.Protein>
3pbl|protein|mol2

> <Gold.Protein.RotatedTorsions>
[ 1303 1298 1297 1294 ] final  162.65 input  179.99 | X-H torsion
[ 2461 2456 2455 2452 ] final  135.52 input   30.03 | X-H torsion
[ 2515 2510 2509 2506 ] final  -14.45 input  -89.99 | X-H torsion
[ 3721 3712 3711 3710 ] final   92.11 input -179.91 | X-H torsion
[ 3841 3832 3831 3830 ] final   15.59 input -179.91 | X-H torsion
[ 3767 3762 3761 3758 ] final  -36.94 input  -89.99 | X-H torsion
[ 2472 2467 2466 2463 ] final -109.93 input  -89.97 | X-H torsion

> <Gold.Protein.ActiveResidues>
 VAL82   VAL86   LEU89   PHE106  VAL107  ASP110  VAL111  MET112  CYS114  THR115 
 CYS181  SER182  ILE183  PHE188  VAL189  ILE190  SER192  SER193  SER196  TRP342 
 PHE345  PHE346  HIS349  VAL350  TYR365  THR369  GLY372  TYR373 

> <Gold.Protein.RotatedAtoms>
    4.9092   -9.1202    4.8138 H   0  0  0  0  0  0  0  0  0  0  0  0  # atno 1303 bound_to 1298
    2.0173   -8.8274    8.2098 H   0  0  0  0  0  0  0  0  0  0  0  0  # atno 2461 bound_to 2456
   -4.3390   -5.4185    9.4135 H   0  0  0  0  0  0  0  0  0  0  0  0  # atno 2472 bound_to 2467
    2.6345   -7.8009    4.4740 H   0  0  0  0  0  0  0  0  0  0  0  0  # atno 2515 bound_to 2510
   -2.7993  -17.5900   13.0918 H   0  0  0  0  0  0  0  0  0  0  0  0  # atno 3721 bound_to 3712
   -5.5099  -22.2747   10.5032 H   0  0  0  0  0  0  0  0  0  0  0  0  # atno 3767 bound_to 3762
    1.8923  -20.6543    9.6122 H   0  0  0  0  0  0  0  0  0  0  0  0  # atno 3841 bound_to 3832
    3.7799  -10.2469    4.4656 LP  0  0  0  0  0  0  0  0  0  0  0  0  # atno 4297 bound_to 1298
    3.6728   -8.7543    3.8120 LP  0  0  0  0  0  0  0  0  0  0  0  0  # atno 4298 bound_to 1298
    1.2873   -7.9292    7.0576 LP  0  0  0  0  0  0  0  0  0  0  0  0  # atno 4299 bound_to 2456
    0.4334   -9.0516    7.8808 LP  0  0  0  0  0  0  0  0  0  0  0  0  # atno 4300 bound_to 2456
    2.6336   -9.2541    5.2183 LP  0  0  0  0  0  0  0  0  0  0  0  0  # atno 4301 bound_to 2510
    2.0285   -7.9444    5.9833 LP  0  0  0  0  0  0  0  0  0  0  0  0  # atno 4302 bound_to 2510
   -2.7505  -17.8561   14.6744 LP  0  0  0  0  0  0  0  0  0  0  0  0  # atno 4306 bound_to 3712
   -3.5453  -16.5622   14.0740 LP  0  0  0  0  0  0  0  0  0  0  0  0  # atno 4307 bound_to 3712
    1.9171  -19.6351    8.3726 LP  0  0  0  0  0  0  0  0  0  0  0  0  # atno 4314 bound_to 3832
    3.1263  -20.7113    8.5875 LP  0  0  0  0  0  0  0  0  0  0  0  0  # atno 4315 bound_to 3832
   -4.3464  -22.2645   11.6490 LP  0  0  0  0  0  0  0  0  0  0  0  0  # atno 4318 bound_to 3762
   -4.2714  -23.3357   10.4187 LP  0  0  0  0  0  0  0  0  0  0  0  0  # atno 4319 bound_to 3762
   -5.4756   -5.1330    8.2763 LP  0  0  0  0  0  0  0  0  0  0  0  0  # atno 4320 bound_to 2467
   -3.9023   -4.8421    7.9495 LP  0  0  0  0  0  0  0  0  0  0  0  0  # atno 4321 bound_to 2467

> <Gold.Score>
     Score     S(PLP)   S(hbond)     S(cho)   S(metal)  DE(clash)   DE(tors)     intcor
     41.01     -35.84       2.00       0.00       0.00       0.00       0.75       0.67

> <Gold.PLP.Fitness>
41.0082

> <Gold.PLP.PLP>
-35.8356

> <Gold.PLP.part.hbond>
-1.0000

> <Gold.PLP.part.metal>
0.0000

> <Gold.PLP.part.buried>
-3.2574

> <Gold.PLP.part.nonpolar>
-32.4552

> <Gold.PLP.part.repulsive>
0.0297

> <Gold.PLP.ligand.clash>
0.0000

> <Gold.PLP.ligand.torsion>
0.7492

> <Gold.PLP.Chemscore.Hbond>
2.0000

> <Gold.PLP.Chemscore.CHOScore>
0.0000

> <Gold.PLP.Chemscore.Metal>
0.0000

> <Gold.Chemscore.Hbonds>
donor molecule, donor type, donor heavy atom, donor atom, acceptor molecule, acceptor atom, score
      L1  H     2    24       P1  1227  2.00

> <Gold.PLP.Chemscore.Internal.Correction>
0.6709

