#       Name:                EN300-06567_i001
#       Creating user name   fsindt
#       Creation time:       Tue Feb 28 08:16:46 2023


#       File generated by GOLD software.
#

@<TRIPOS>MOLECULE
EN300-06567_i001|amine_7|mol2|4380|dock2
    25    25     1
SMALL
USER_CHARGES


@<TRIPOS>ATOM
      1 C1          -4.1775 -10.3597  10.1137 C.3            1 <1>                0.0000
      2 N2          -2.9331  -9.5799  10.0791 N.4            1 <1>                1.0000
      3 C3          -1.9875 -10.1225  11.0636 C.3            1 <1>                0.0000
      4 C4          -1.2042 -11.2488  10.4400 C.ar           1 <1>                0.0000
      5 C5          -0.5726 -11.0600   9.2246 C.ar           1 <1>                0.0000
      6 C6           0.1456 -12.0910   8.6505 C.ar           1 <1>                0.0000
      7 C7           0.2334 -13.3165   9.2949 C.ar           1 <1>                0.0000
      8 O8           0.9398 -14.3321   8.7324 O.3            1 <1>                0.0000
      9 C9           1.0984 -14.3035   7.3125 C.3            1 <1>                0.0000
     10 C10         -0.4007 -13.5032  10.5145 C.ar           1 <1>                0.0000
     11 C11         -1.1135 -12.4674  11.0868 C.ar           1 <1>                0.0000
     12 H12         -4.6161 -10.3001  11.1099 H              1 <1>                0.0000
     13 H13         -4.8792  -9.9570   9.3832 H              1 <1>                0.0000
     14 H14         -3.9607 -11.4007   9.8739 H              1 <1>                0.0000
     15 H15         -1.3029  -9.3363  11.3816 H              1 <1>                0.0000
     16 H16         -2.5371 -10.4969  11.9272 H              1 <1>                0.0000
     17 H17         -0.6413 -10.1058   8.7233 H              1 <1>                0.0000
     18 H18          0.6382 -11.9433   7.7008 H              1 <1>                0.0000
     19 H19          1.6801 -15.1686   6.9944 H              1 <1>                0.0000
     20 H20          0.1180 -14.3300   6.8368 H              1 <1>                0.0000
     21 H21          1.6180 -13.3900   7.0233 H              1 <1>                0.0000
     22 H22         -0.3341 -14.4564  11.0180 H              1 <1>                0.0000
     23 H23         -1.6070 -12.6122  12.0365 H              1 <1>                0.0000
     24 H24         -2.5272  -9.6351   9.1570 H              1 <1>                0.0000
     25 H25         -3.1338  -8.6163  10.3011 H              1 <1>                0.0000
@<TRIPOS>BOND
    1    1    2 1     
    2    1   12 1     
    3    1   13 1     
    4    1   14 1     
    5    2    3 1     
    6    2   24 1     
    7    2   25 1     
    8    3    4 1     
    9    3   15 1     
   10    3   16 1     
   11    4    5 ar    
   12    4   11 ar    
   13    5    6 ar    
   14    5   17 1     
   15    6    7 ar    
   16    6   18 1     
   17    7    8 1     
   18    7   10 ar    
   19    8    9 1     
   20    9   19 1     
   21    9   20 1     
   22    9   21 1     
   23   10   11 ar    
   24   10   22 1     
   25   11   23 1     
@<TRIPOS>SUBSTRUCTURE
      1 ****           1
@<TRIPOS>SET
DONOR_HYDROGENS      STATIC     ATOMS    <user>   **** ""
2 24 25
ATOM$RED        STATIC     ATOMS    COLORGROUP SYSTEM
2 24 25
@<TRIPOS>COMMENT
> <Gold.Version>
2022.2.0

> <Gold.Id.Protein>
3pbl|protein|mol2

> <Gold.Protein.RotatedTorsions>
[ 1303 1298 1297 1294 ] final  -45.53 input  179.99 | X-H torsion
[ 2461 2456 2455 2452 ] final -169.96 input   30.03 | X-H torsion
[ 2515 2510 2509 2506 ] final   35.14 input  -89.99 | X-H torsion
[ 3721 3712 3711 3710 ] final  -29.42 input -179.91 | X-H torsion
[ 3841 3832 3831 3830 ] final  -34.07 input -179.91 | X-H torsion
[ 3767 3762 3761 3758 ] final  -44.45 input  -89.99 | X-H torsion
[ 2472 2467 2466 2463 ] final   48.37 input  -89.97 | X-H torsion

> <Gold.Protein.ActiveResidues>
 VAL82   VAL86   LEU89   PHE106  VAL107  ASP110  VAL111  MET112  CYS114  THR115 
 CYS181  SER182  ILE183  PHE188  VAL189  ILE190  SER192  SER193  SER196  TRP342 
 PHE345  PHE346  HIS349  VAL350  TYR365  THR369  GLY372  TYR373 

> <Gold.Protein.RotatedAtoms>
    3.3962   -9.1901    3.7895 H   0  0  0  0  0  0  0  0  0  0  0  0  # atno 1303 bound_to 1298
    1.2921   -9.2610    8.3898 H   0  0  0  0  0  0  0  0  0  0  0  0  # atno 2461 bound_to 2456
   -4.4531   -4.8030    7.6706 H   0  0  0  0  0  0  0  0  0  0  0  0  # atno 2472 bound_to 2467
    2.2974   -7.4125    5.0744 H   0  0  0  0  0  0  0  0  0  0  0  0  # atno 2515 bound_to 2510
   -2.6000  -17.7060   14.5858 H   0  0  0  0  0  0  0  0  0  0  0  0  # atno 3721 bound_to 3712
   -5.5087  -22.1968   10.5992 H   0  0  0  0  0  0  0  0  0  0  0  0  # atno 3767 bound_to 3762
    1.5642  -20.0832    9.3041 H   0  0  0  0  0  0  0  0  0  0  0  0  # atno 3841 bound_to 3832
    4.7586   -8.7041    4.5471 LP  0  0  0  0  0  0  0  0  0  0  0  0  # atno 4297 bound_to 1298
    4.2076  -10.2272    4.7552 LP  0  0  0  0  0  0  0  0  0  0  0  0  # atno 4298 bound_to 1298
    2.0145   -8.1064    7.4885 LP  0  0  0  0  0  0  0  0  0  0  0  0  # atno 4299 bound_to 2456
    0.4312   -8.4410    7.2701 LP  0  0  0  0  0  0  0  0  0  0  0  0  # atno 4300 bound_to 2456
    2.8291   -8.8670    4.5570 LP  0  0  0  0  0  0  0  0  0  0  0  0  # atno 4301 bound_to 2510
    2.1702   -8.7201    6.0439 LP  0  0  0  0  0  0  0  0  0  0  0  0  # atno 4302 bound_to 2510
   -3.5552  -16.5564   13.9997 LP  0  0  0  0  0  0  0  0  0  0  0  0  # atno 4306 bound_to 3712
   -2.9707  -17.7280   13.0238 LP  0  0  0  0  0  0  0  0  0  0  0  0  # atno 4307 bound_to 3712
    2.6471  -19.8773    8.1375 LP  0  0  0  0  0  0  0  0  0  0  0  0  # atno 4314 bound_to 3832
    2.7754  -21.1288    9.1785 LP  0  0  0  0  0  0  0  0  0  0  0  0  # atno 4315 bound_to 3832
   -4.2559  -22.3477   11.6358 LP  0  0  0  0  0  0  0  0  0  0  0  0  # atno 4318 bound_to 3762
   -4.3630  -23.3304   10.3360 LP  0  0  0  0  0  0  0  0  0  0  0  0  # atno 4319 bound_to 3762
   -3.8263   -5.2520    9.1100 LP  0  0  0  0  0  0  0  0  0  0  0  0  # atno 4320 bound_to 2467
   -5.4374   -5.3385    8.8584 LP  0  0  0  0  0  0  0  0  0  0  0  0  # atno 4321 bound_to 2467

> <Gold.Score>
     Score     S(PLP)   S(hbond)     S(cho)   S(metal)  DE(clash)   DE(tors)     intcor
     44.69     -42.20       0.99       0.00       0.00       0.00       0.58       0.67

> <Gold.PLP.Fitness>
44.6892

> <Gold.PLP.PLP>
-42.1993

> <Gold.PLP.part.hbond>
-1.0000

> <Gold.PLP.part.metal>
0.0000

> <Gold.PLP.part.buried>
-4.6239

> <Gold.PLP.part.nonpolar>
-37.6511

> <Gold.PLP.part.repulsive>
0.1673

> <Gold.PLP.ligand.clash>
0.0000

> <Gold.PLP.ligand.torsion>
0.5774

> <Gold.PLP.Chemscore.Hbond>
0.9913

> <Gold.PLP.Chemscore.CHOScore>
0.0000

> <Gold.PLP.Chemscore.Metal>
0.0000

> <Gold.Chemscore.Hbonds>
donor molecule, donor type, donor heavy atom, donor atom, acceptor molecule, acceptor atom, score
      L1  H     2    25       P1  2398  0.99

> <Gold.PLP.Chemscore.Internal.Correction>
0.6709

