#       Name:                EN300-06567_i001
#       Creating user name   fsindt
#       Creation time:       Tue Feb 28 08:16:51 2023


#       File generated by GOLD software.
#

@<TRIPOS>MOLECULE
EN300-06567_i001|amine_7|mol2|4380|dock12
    25    25     1
SMALL
USER_CHARGES


@<TRIPOS>ATOM
      1 C1           2.6009 -16.9328  13.2049 C.3            1 <1>                0.0000
      2 N2           2.1391 -16.1483  12.0520 N.4            1 <1>                1.0000
      3 C3           0.6706 -16.1472  12.0171 C.3            1 <1>                0.0000
      4 C4           0.1850 -14.8900  11.3428 C.ar           1 <1>                0.0000
      5 C5          -0.6980 -14.0521  11.9985 C.ar           1 <1>                0.0000
      6 C6          -1.1451 -12.8992  11.3823 C.ar           1 <1>                0.0000
      7 C7          -0.7068 -12.5823  10.1047 C.ar           1 <1>                0.0000
      8 O8          -1.1447 -11.4486   9.4967 O.3            1 <1>                0.0000
      9 C9          -1.6088 -10.3957  10.3442 C.3            1 <1>                0.0000
     10 C10          0.1796 -13.4244   9.4493 C.ar           1 <1>                0.0000
     11 C11          0.6276 -14.5734  10.0718 C.ar           1 <1>                0.0000
     12 H12          2.2388 -17.9572  13.1158 H              1 <1>                0.0000
     13 H13          3.6906 -16.9337  13.2308 H              1 <1>                0.0000
     14 H14          2.2159 -16.4900  14.1235 H              1 <1>                0.0000
     15 H15          0.3197 -17.0165  11.4609 H              1 <1>                0.0000
     16 H16          0.2829 -16.1864  13.0350 H              1 <1>                0.0000
     17 H17         -1.0389 -14.2992  12.9930 H              1 <1>                0.0000
     18 H18         -1.8353 -12.2454  11.8946 H              1 <1>                0.0000
     19 H19         -1.9284  -9.5516   9.7332 H              1 <1>                0.0000
     20 H20         -2.4493 -10.7523  10.9396 H              1 <1>                0.0000
     21 H21         -0.8025 -10.0802  11.0064 H              1 <1>                0.0000
     22 H22          0.5220 -13.1801   8.4545 H              1 <1>                0.0000
     23 H23          1.3180 -15.2291   9.5619 H              1 <1>                0.0000
     24 H24          2.4743 -15.2001  12.1345 H              1 <1>                0.0000
     25 H25          2.4954 -16.5582  11.2017 H              1 <1>                0.0000
@<TRIPOS>BOND
    1    1    2 1     
    2    1   12 1     
    3    1   13 1     
    4    1   14 1     
    5    2    3 1     
    6    2   24 1     
    7    2   25 1     
    8    3    4 1     
    9    3   15 1     
   10    3   16 1     
   11    4    5 ar    
   12    4   11 ar    
   13    5    6 ar    
   14    5   17 1     
   15    6    7 ar    
   16    6   18 1     
   17    7    8 1     
   18    7   10 ar    
   19    8    9 1     
   20    9   19 1     
   21    9   20 1     
   22    9   21 1     
   23   10   11 ar    
   24   10   22 1     
   25   11   23 1     
@<TRIPOS>SUBSTRUCTURE
      1 ****           1
@<TRIPOS>SET
DONOR_HYDROGENS      STATIC     ATOMS    <user>   **** ""
2 24 25
ATOM$RED        STATIC     ATOMS    COLORGROUP SYSTEM
2 24 25
@<TRIPOS>COMMENT
> <Gold.Version>
2022.2.0

> <Gold.Id.Protein>
3pbl|protein|mol2

> <Gold.Protein.RotatedTorsions>
[ 1303 1298 1297 1294 ] final -101.10 input  179.99 | X-H torsion
[ 2461 2456 2455 2452 ] final   20.56 input   30.03 | X-H torsion
[ 2515 2510 2509 2506 ] final -179.61 input  -89.99 | X-H torsion
[ 3721 3712 3711 3710 ] final -141.25 input -179.91 | X-H torsion
[ 3841 3832 3831 3830 ] final   95.19 input -179.91 | X-H torsion
[ 3767 3762 3761 3758 ] final  -53.75 input  -89.99 | X-H torsion
[ 2472 2467 2466 2463 ] final   56.10 input  -89.97 | X-H torsion

> <Gold.Protein.ActiveResidues>
 VAL82   VAL86   LEU89   PHE106  VAL107  ASP110  VAL111  MET112  CYS114  THR115 
 CYS181  SER182  ILE183  PHE188  VAL189  ILE190  SER192  SER193  SER196  TRP342 
 PHE345  PHE346  HIS349  VAL350  TYR365  THR369  GLY372  TYR373 

> <Gold.Protein.RotatedAtoms>
    3.9733   -8.5448    3.9401 H   0  0  0  0  0  0  0  0  0  0  0  0  # atno 1303 bound_to 1298
    1.3674   -7.9202    7.0767 H   0  0  0  0  0  0  0  0  0  0  0  0  # atno 2461 bound_to 2456
   -4.5793   -4.8127    7.6590 H   0  0  0  0  0  0  0  0  0  0  0  0  # atno 2472 bound_to 2467
    2.3264   -9.0411    5.8380 H   0  0  0  0  0  0  0  0  0  0  0  0  # atno 2515 bound_to 2510
   -3.3053  -16.5476   14.1181 H   0  0  0  0  0  0  0  0  0  0  0  0  # atno 3721 bound_to 3712
   -5.4882  -22.1108   10.7239 H   0  0  0  0  0  0  0  0  0  0  0  0  # atno 3767 bound_to 3762
    2.8956  -20.8992    9.2103 H   0  0  0  0  0  0  0  0  0  0  0  0  # atno 3841 bound_to 3832
    4.8678   -9.4889    4.9275 LP  0  0  0  0  0  0  0  0  0  0  0  0  # atno 4297 bound_to 1298
    3.5212  -10.0879    4.2242 LP  0  0  0  0  0  0  0  0  0  0  0  0  # atno 4298 bound_to 1298
    0.3995   -9.0043    7.8218 LP  0  0  0  0  0  0  0  0  0  0  0  0  # atno 4299 bound_to 2456
    1.9709   -8.8834    8.2495 LP  0  0  0  0  0  0  0  0  0  0  0  0  # atno 4300 bound_to 2456
    2.1478   -7.4640    5.4549 LP  0  0  0  0  0  0  0  0  0  0  0  0  # atno 4301 bound_to 2510
    2.8225   -8.4937    4.3820 LP  0  0  0  0  0  0  0  0  0  0  0  0  # atno 4302 bound_to 2510
   -3.0135  -17.6577   12.9954 LP  0  0  0  0  0  0  0  0  0  0  0  0  # atno 4306 bound_to 3712
   -2.6981  -17.9641   14.5681 LP  0  0  0  0  0  0  0  0  0  0  0  0  # atno 4307 bound_to 3712
    1.4110  -20.2926    9.2747 LP  0  0  0  0  0  0  0  0  0  0  0  0  # atno 4314 bound_to 3832
    2.4735  -19.7709    8.1497 LP  0  0  0  0  0  0  0  0  0  0  0  0  # atno 4315 bound_to 3832
   -4.1549  -22.4570   11.6010 LP  0  0  0  0  0  0  0  0  0  0  0  0  # atno 4318 bound_to 3762
   -4.4845  -23.3071   10.2462 LP  0  0  0  0  0  0  0  0  0  0  0  0  # atno 4319 bound_to 3762
   -3.7567   -5.2092    9.0127 LP  0  0  0  0  0  0  0  0  0  0  0  0  # atno 4320 bound_to 2467
   -5.3809   -5.3716    8.9673 LP  0  0  0  0  0  0  0  0  0  0  0  0  # atno 4321 bound_to 2467

> <Gold.Score>
     Score     S(PLP)   S(hbond)     S(cho)   S(metal)  DE(clash)   DE(tors)     intcor
     41.30     -35.67       2.00       0.00       0.00       0.02       0.52       0.67

> <Gold.PLP.Fitness>
41.2959

> <Gold.PLP.PLP>
-35.6744

> <Gold.PLP.part.hbond>
-1.0000

> <Gold.PLP.part.metal>
0.0000

> <Gold.PLP.part.buried>
-3.7118

> <Gold.PLP.part.nonpolar>
-31.6461

> <Gold.PLP.part.repulsive>
0.0000

> <Gold.PLP.ligand.clash>
0.0155

> <Gold.PLP.ligand.torsion>
0.5170

> <Gold.PLP.Chemscore.Hbond>
2.0000

> <Gold.PLP.Chemscore.CHOScore>
0.0000

> <Gold.PLP.Chemscore.Metal>
0.0000

> <Gold.Chemscore.Hbonds>
donor molecule, donor type, donor heavy atom, donor atom, acceptor molecule, acceptor atom, score
      L1  H     2    25       P1  1227  2.00

> <Gold.PLP.Chemscore.Internal.Correction>
0.6709

