#       Name:                EN300-06567_i001
#       Creating user name   fsindt
#       Creation time:       Tue Feb 28 08:16:54 2023


#       File generated by GOLD software.
#

@<TRIPOS>MOLECULE
EN300-06567_i001|amine_7|mol2|4380|dock17
    25    25     1
SMALL
USER_CHARGES


@<TRIPOS>ATOM
      1 C1          -4.2052 -10.3884  10.1123 C.3            1 <1>                0.0000
      2 N2          -3.0468  -9.5636  10.4806 N.4            1 <1>                1.0000
      3 C3          -1.9103  -9.9003   9.6130 C.3            1 <1>                0.0000
      4 C4          -1.3456 -11.2366  10.0208 C.ar           1 <1>                0.0000
      5 C5          -1.5197 -11.6939  11.3140 C.ar           1 <1>                0.0000
      6 C6          -1.0025 -12.9183  11.6905 C.ar           1 <1>                0.0000
      7 C7          -0.3083 -13.6895  10.7696 C.ar           1 <1>                0.0000
      8 O8           0.2010 -14.8946  11.1375 O.3            1 <1>                0.0000
      9 C9          -0.4109 -15.5440  12.2537 C.3            1 <1>                0.0000
     10 C10         -0.1354 -13.2287   9.4726 C.ar           1 <1>                0.0000
     11 C11         -0.6589 -12.0059   9.0997 C.ar           1 <1>                0.0000
     12 H12         -3.9545 -11.4423  10.2346 H              1 <1>                0.0000
     13 H13         -5.0486 -10.1387  10.7561 H              1 <1>                0.0000
     14 H14         -4.4721 -10.1968   9.0730 H              1 <1>                0.0000
     15 H15         -2.2457  -9.9485   8.5770 H              1 <1>                0.0000
     16 H16         -1.1399  -9.1354   9.7102 H              1 <1>                0.0000
     17 H17         -2.0602 -11.0931  12.0305 H              1 <1>                0.0000
     18 H18         -1.1382 -13.2747  12.7009 H              1 <1>                0.0000
     19 H19          0.0899 -16.4938  12.4407 H              1 <1>                0.0000
     20 H20         -0.3258 -14.9086  13.1352 H              1 <1>                0.0000
     21 H21         -1.4636 -15.7249  12.0364 H              1 <1>                0.0000
     22 H22          0.4050 -13.8271   8.7540 H              1 <1>                0.0000
     23 H23         -0.5249 -11.6469   8.0899 H              1 <1>                0.0000
     24 H24         -3.2790  -8.5882  10.3673 H              1 <1>                0.0000
     25 H25         -2.7997  -9.7411  11.4426 H              1 <1>                0.0000
@<TRIPOS>BOND
    1    1    2 1     
    2    1   12 1     
    3    1   13 1     
    4    1   14 1     
    5    2    3 1     
    6    2   24 1     
    7    2   25 1     
    8    3    4 1     
    9    3   15 1     
   10    3   16 1     
   11    4    5 ar    
   12    4   11 ar    
   13    5    6 ar    
   14    5   17 1     
   15    6    7 ar    
   16    6   18 1     
   17    7    8 1     
   18    7   10 ar    
   19    8    9 1     
   20    9   19 1     
   21    9   20 1     
   22    9   21 1     
   23   10   11 ar    
   24   10   22 1     
   25   11   23 1     
@<TRIPOS>SUBSTRUCTURE
      1 ****           1
@<TRIPOS>SET
DONOR_HYDROGENS      STATIC     ATOMS    <user>   **** ""
2 24 25
ATOM$RED        STATIC     ATOMS    COLORGROUP SYSTEM
2 24 25
@<TRIPOS>COMMENT
> <Gold.Version>
2022.2.0

> <Gold.Id.Protein>
3pbl|protein|mol2

> <Gold.Protein.RotatedTorsions>
[ 1303 1298 1297 1294 ] final  -40.80 input  179.99 | X-H torsion
[ 2461 2456 2455 2452 ] final  -14.71 input   30.03 | X-H torsion
[ 2515 2510 2509 2506 ] final -178.92 input  -89.99 | X-H torsion
[ 3721 3712 3711 3710 ] final  125.47 input -179.91 | X-H torsion
[ 3841 3832 3831 3830 ] final  151.10 input -179.91 | X-H torsion
[ 3767 3762 3761 3758 ] final   66.46 input  -89.99 | X-H torsion
[ 2472 2467 2466 2463 ] final  -53.03 input  -89.97 | X-H torsion

> <Gold.Protein.ActiveResidues>
 VAL82   VAL86   LEU89   PHE106  VAL107  ASP110  VAL111  MET112  CYS114  THR115 
 CYS181  SER182  ILE183  PHE188  VAL189  ILE190  SER192  SER193  SER196  TRP342 
 PHE345  PHE346  HIS349  VAL350  TYR365  THR369  GLY372  TYR373 

> <Gold.Protein.RotatedAtoms>
    3.3724   -9.2633    3.8014 H   0  0  0  0  0  0  0  0  0  0  0  0  # atno 1303 bound_to 1298
    0.8211   -8.0858    7.0514 H   0  0  0  0  0  0  0  0  0  0  0  0  # atno 2461 bound_to 2456
   -3.6840   -5.1476    8.8618 H   0  0  0  0  0  0  0  0  0  0  0  0  # atno 2472 bound_to 2467
    2.3311   -9.0481    5.8306 H   0  0  0  0  0  0  0  0  0  0  0  0  # atno 2515 bound_to 2510
   -3.0484  -17.1620   13.0489 H   0  0  0  0  0  0  0  0  0  0  0  0  # atno 3721 bound_to 3712
   -4.4811  -23.3075   10.2476 H   0  0  0  0  0  0  0  0  0  0  0  0  # atno 3767 bound_to 3762
    3.1210  -20.3930    8.6174 H   0  0  0  0  0  0  0  0  0  0  0  0  # atno 3841 bound_to 3832
    4.7178   -8.6570    4.5004 LP  0  0  0  0  0  0  0  0  0  0  0  0  # atno 4297 bound_to 1298
    4.2722  -10.2011    4.7900 LP  0  0  0  0  0  0  0  0  0  0  0  0  # atno 4298 bound_to 1298
    0.7561   -9.2517    8.1933 LP  0  0  0  0  0  0  0  0  0  0  0  0  # atno 4299 bound_to 2456
    2.1605   -8.4705    7.9032 LP  0  0  0  0  0  0  0  0  0  0  0  0  # atno 4300 bound_to 2456
    2.1444   -7.4679    5.4650 LP  0  0  0  0  0  0  0  0  0  0  0  0  # atno 4301 bound_to 2510
    2.8212   -8.4828    4.3794 LP  0  0  0  0  0  0  0  0  0  0  0  0  # atno 4302 bound_to 2510
   -2.6177  -18.1563   14.2337 LP  0  0  0  0  0  0  0  0  0  0  0  0  # atno 4306 bound_to 3712
   -3.3905  -16.7562   14.5642 LP  0  0  0  0  0  0  0  0  0  0  0  0  # atno 4307 bound_to 3712
    1.9425  -20.9631    9.5459 LP  0  0  0  0  0  0  0  0  0  0  0  0  # atno 4314 bound_to 3832
    1.6815  -19.6852    8.5633 LP  0  0  0  0  0  0  0  0  0  0  0  0  # atno 4315 bound_to 3832
   -5.4892  -22.1133   10.7213 LP  0  0  0  0  0  0  0  0  0  0  0  0  # atno 4318 bound_to 3762
   -4.1571  -22.4545   11.6020 LP  0  0  0  0  0  0  0  0  0  0  0  0  # atno 4319 bound_to 3762
   -5.2768   -5.4105    9.1072 LP  0  0  0  0  0  0  0  0  0  0  0  0  # atno 4320 bound_to 2467
   -4.7560   -4.8354    7.6703 LP  0  0  0  0  0  0  0  0  0  0  0  0  # atno 4321 bound_to 2467

> <Gold.Score>
     Score     S(PLP)   S(hbond)     S(cho)   S(metal)  DE(clash)   DE(tors)     intcor
     43.55     -41.37       0.99       0.00       0.00       0.01       0.73       0.67

> <Gold.PLP.Fitness>
43.5513

> <Gold.PLP.PLP>
-41.3708

> <Gold.PLP.part.hbond>
-1.0000

> <Gold.PLP.part.metal>
0.0000

> <Gold.PLP.part.buried>
-3.8005

> <Gold.PLP.part.nonpolar>
-37.5170

> <Gold.PLP.part.repulsive>
0.1158

> <Gold.PLP.ligand.clash>
0.0067

> <Gold.PLP.ligand.torsion>
0.7299

> <Gold.PLP.Chemscore.Hbond>
0.9920

> <Gold.PLP.Chemscore.CHOScore>
0.0000

> <Gold.PLP.Chemscore.Metal>
0.0000

> <Gold.Chemscore.Hbonds>
donor molecule, donor type, donor heavy atom, donor atom, acceptor molecule, acceptor atom, score
      L1  H     2    24       P1  2398  0.99

> <Gold.PLP.Chemscore.Internal.Correction>
0.6709

