#       Name:                EN300-06567_i001
#       Creating user name   fsindt
#       Creation time:       Tue Feb 28 08:16:53 2023


#       File generated by GOLD software.
#

@<TRIPOS>MOLECULE
EN300-06567_i001|amine_7|mol2|4380|dock16
    25    25     1
SMALL
USER_CHARGES


@<TRIPOS>ATOM
      1 C1           0.7610 -15.1320   7.4622 C.3            1 <1>                0.0000
      2 N2           0.7523 -13.6652   7.3847 N.4            1 <1>                1.0000
      3 C3           1.0986 -13.1034   8.6971 C.3            1 <1>                0.0000
      4 C4          -0.1042 -12.4060   9.2783 C.ar           1 <1>                0.0000
      5 C5          -0.6394 -12.8376  10.4779 C.ar           1 <1>                0.0000
      6 C6          -1.7424 -12.2004  11.0126 C.ar           1 <1>                0.0000
      7 C7          -2.3126 -11.1261  10.3451 C.ar           1 <1>                0.0000
      8 O8          -3.3974 -10.4973  10.8693 O.3            1 <1>                0.0000
      9 C9          -4.3074  -9.8956   9.9462 C.3            1 <1>                0.0000
     10 C10         -1.7734 -10.6947   9.1419 C.ar           1 <1>                0.0000
     11 C11         -0.6673 -11.3321   8.6140 C.ar           1 <1>                0.0000
     12 H12          0.0314 -15.4612   8.2023 H              1 <1>                0.0000
     13 H13          0.5039 -15.5489   6.4884 H              1 <1>                0.0000
     14 H14          1.7539 -15.4747   7.7535 H              1 <1>                0.0000
     15 H15          1.4111 -13.9062   9.3650 H              1 <1>                0.0000
     16 H16          1.9132 -12.3882   8.5827 H              1 <1>                0.0000
     17 H17         -0.1951 -13.6739  10.9972 H              1 <1>                0.0000
     18 H18         -2.1605 -12.5383  11.9493 H              1 <1>                0.0000
     19 H19         -5.1259  -9.4294  10.4946 H              1 <1>                0.0000
     20 H20         -3.7844  -9.1390   9.3613 H              1 <1>                0.0000
     21 H21         -4.7059 -10.6596   9.2787 H              1 <1>                0.0000
     22 H22         -2.2157  -9.8589   8.6202 H              1 <1>                0.0000
     23 H23         -0.2469 -10.9964   7.6775 H              1 <1>                0.0000
     24 H24          1.4276 -13.3606   6.6997 H              1 <1>                0.0000
     25 H25         -0.1669 -13.3480   7.1151 H              1 <1>                0.0000
@<TRIPOS>BOND
    1    1    2 1     
    2    1   12 1     
    3    1   13 1     
    4    1   14 1     
    5    2    3 1     
    6    2   24 1     
    7    2   25 1     
    8    3    4 1     
    9    3   15 1     
   10    3   16 1     
   11    4    5 ar    
   12    4   11 ar    
   13    5    6 ar    
   14    5   17 1     
   15    6    7 ar    
   16    6   18 1     
   17    7    8 1     
   18    7   10 ar    
   19    8    9 1     
   20    9   19 1     
   21    9   20 1     
   22    9   21 1     
   23   10   11 ar    
   24   10   22 1     
   25   11   23 1     
@<TRIPOS>SUBSTRUCTURE
      1 ****           1
@<TRIPOS>SET
DONOR_HYDROGENS      STATIC     ATOMS    <user>   **** ""
2 24 25
ATOM$RED        STATIC     ATOMS    COLORGROUP SYSTEM
2 24 25
@<TRIPOS>COMMENT
> <Gold.Version>
2022.2.0

> <Gold.Id.Protein>
3pbl|protein|mol2

> <Gold.Protein.RotatedTorsions>
[ 1303 1298 1297 1294 ] final  104.38 input  179.99 | X-H torsion
[ 2461 2456 2455 2452 ] final   34.52 input   30.03 | X-H torsion
[ 2515 2510 2509 2506 ] final   17.62 input  -89.99 | X-H torsion
[ 3721 3712 3711 3710 ] final   72.11 input -179.91 | X-H torsion
[ 3841 3832 3831 3830 ] final -160.36 input -179.91 | X-H torsion
[ 3767 3762 3761 3758 ] final  -60.89 input  -89.99 | X-H torsion
[ 2472 2467 2466 2463 ] final  -35.34 input  -89.97 | X-H torsion

> <Gold.Protein.ActiveResidues>
 VAL82   VAL86   LEU89   PHE106  VAL107  ASP110  VAL111  MET112  CYS114  THR115 
 CYS181  SER182  ILE183  PHE188  VAL189  ILE190  SER192  SER193  SER196  TRP342 
 PHE345  PHE346  HIS349  VAL350  TYR365  THR369  GLY372  TYR373 

> <Gold.Protein.RotatedAtoms>
    4.5878   -9.9732    4.9215 H   0  0  0  0  0  0  0  0  0  0  0  0  # atno 1303 bound_to 1298
    1.5827   -7.9235    7.1551 H   0  0  0  0  0  0  0  0  0  0  0  0  # atno 2461 bound_to 2456
   -3.6346   -5.0460    8.5947 H   0  0  0  0  0  0  0  0  0  0  0  0  # atno 2472 bound_to 2467
    2.4182   -7.4807    4.8231 H   0  0  0  0  0  0  0  0  0  0  0  0  # atno 2515 bound_to 2510
   -2.6614  -17.8062   13.2491 H   0  0  0  0  0  0  0  0  0  0  0  0  # atno 3721 bound_to 3712
   -5.4585  -22.0537   10.8221 H   0  0  0  0  0  0  0  0  0  0  0  0  # atno 3767 bound_to 3762
    2.7559  -19.8432    8.3513 H   0  0  0  0  0  0  0  0  0  0  0  0  # atno 3841 bound_to 3832
    3.3341   -9.6532    3.9255 LP  0  0  0  0  0  0  0  0  0  0  0  0  # atno 4297 bound_to 1298
    4.4400   -8.4947    4.2444 LP  0  0  0  0  0  0  0  0  0  0  0  0  # atno 4298 bound_to 1298
    0.3405   -8.8584    7.6553 LP  0  0  0  0  0  0  0  0  0  0  0  0  # atno 4299 bound_to 2456
    1.8147   -9.0261    8.3375 LP  0  0  0  0  0  0  0  0  0  0  0  0  # atno 4300 bound_to 2456
    2.7886   -9.0695    4.7565 LP  0  0  0  0  0  0  0  0  0  0  0  0  # atno 4301 bound_to 2510
    2.0899   -8.4493    6.0958 LP  0  0  0  0  0  0  0  0  0  0  0  0  # atno 4302 bound_to 2510
   -2.8879  -17.5930   14.8243 LP  0  0  0  0  0  0  0  0  0  0  0  0  # atno 4306 bound_to 3712
   -3.5671  -16.5757   13.7424 LP  0  0  0  0  0  0  0  0  0  0  0  0  # atno 4307 bound_to 3712
    2.6563  -21.1528    9.2738 LP  0  0  0  0  0  0  0  0  0  0  0  0  # atno 4314 bound_to 3832
    1.3896  -20.1306    9.1429 LP  0  0  0  0  0  0  0  0  0  0  0  0  # atno 4315 bound_to 3832
   -4.0872  -22.5441   11.5609 LP  0  0  0  0  0  0  0  0  0  0  0  0  # atno 4318 bound_to 3762
   -4.5819  -23.2770   10.1880 LP  0  0  0  0  0  0  0  0  0  0  0  0  # atno 4319 bound_to 3762
   -5.0553   -5.4520    9.2897 LP  0  0  0  0  0  0  0  0  0  0  0  0  # atno 4320 bound_to 2467
   -5.0268   -4.8956    7.7547 LP  0  0  0  0  0  0  0  0  0  0  0  0  # atno 4321 bound_to 2467

> <Gold.Score>
     Score     S(PLP)   S(hbond)     S(cho)   S(metal)  DE(clash)   DE(tors)     intcor
     39.79     -40.59       0.00       0.00       0.00       0.00       0.73       0.67

> <Gold.PLP.Fitness>
39.7947

> <Gold.PLP.PLP>
-40.5935

> <Gold.PLP.part.hbond>
0.0000

> <Gold.PLP.part.metal>
0.0000

> <Gold.PLP.part.buried>
-4.7031

> <Gold.PLP.part.nonpolar>
-36.9081

> <Gold.PLP.part.repulsive>
0.0758

> <Gold.PLP.ligand.clash>
0.0000

> <Gold.PLP.ligand.torsion>
0.7349

> <Gold.PLP.Chemscore.Hbond>
0.0000

> <Gold.PLP.Chemscore.CHOScore>
0.0000

> <Gold.PLP.Chemscore.Metal>
0.0000

> <Gold.PLP.Chemscore.Internal.Correction>
0.6709

