#       Name:                EN300-06567_i001
#       Creating user name   fsindt
#       Creation time:       Tue Feb 28 08:16:46 2023


#       File generated by GOLD software.
#

@<TRIPOS>MOLECULE
EN300-06567_i001|amine_7|mol2|4380|dock4
    25    25     1
SMALL
USER_CHARGES


@<TRIPOS>ATOM
      1 C1          -0.7005 -18.0787   8.4020 C.3            1 <1>                0.0000
      2 N2          -0.1098 -16.8342   8.9121 N.4            1 <1>                1.0000
      3 C3           0.2459 -15.9627   7.7843 C.3            1 <1>                0.0000
      4 C4           0.2509 -14.5267   8.2412 C.ar           1 <1>                0.0000
      5 C5           0.2652 -14.2323   9.5921 C.ar           1 <1>                0.0000
      6 C6           0.2693 -12.9167  10.0136 C.ar           1 <1>                0.0000
      7 C7           0.2596 -11.8905   9.0801 C.ar           1 <1>                0.0000
      8 O8           0.2640 -10.5955   9.4922 O.3            1 <1>                0.0000
      9 C9          -0.2565 -10.3278  10.7959 C.3            1 <1>                0.0000
     10 C10          0.2458 -12.1885   7.7253 C.ar           1 <1>                0.0000
     11 C11          0.2469 -13.5057   7.3089 C.ar           1 <1>                0.0000
     12 H12          0.0208 -18.5879   7.7626 H              1 <1>                0.0000
     13 H13         -0.9643 -18.7254   9.2388 H              1 <1>                0.0000
     14 H14         -1.5961 -17.8463   7.8258 H              1 <1>                0.0000
     15 H15          1.2364 -16.2304   7.4165 H              1 <1>                0.0000
     16 H16         -0.4844 -16.0870   6.9847 H              1 <1>                0.0000
     17 H17          0.2728 -15.0316  10.3184 H              1 <1>                0.0000
     18 H18          0.2798 -12.6873  11.0689 H              1 <1>                0.0000
     19 H19         -0.1943  -9.2588  10.9994 H              1 <1>                0.0000
     20 H20         -1.2976 -10.6470  10.8440 H              1 <1>                0.0000
     21 H21          0.3255 -10.8736  11.5385 H              1 <1>                0.0000
     22 H22          0.2378 -11.3914   6.9966 H              1 <1>                0.0000
     23 H23          0.2365 -13.7382   6.2542 H              1 <1>                0.0000
     24 H24         -0.7774 -16.3629   9.5038 H              1 <1>                0.0000
     25 H25          0.7193 -17.0494   9.4453 H              1 <1>                0.0000
@<TRIPOS>BOND
    1    1    2 1     
    2    1   12 1     
    3    1   13 1     
    4    1   14 1     
    5    2    3 1     
    6    2   24 1     
    7    2   25 1     
    8    3    4 1     
    9    3   15 1     
   10    3   16 1     
   11    4    5 ar    
   12    4   11 ar    
   13    5    6 ar    
   14    5   17 1     
   15    6    7 ar    
   16    6   18 1     
   17    7    8 1     
   18    7   10 ar    
   19    8    9 1     
   20    9   19 1     
   21    9   20 1     
   22    9   21 1     
   23   10   11 ar    
   24   10   22 1     
   25   11   23 1     
@<TRIPOS>SUBSTRUCTURE
      1 ****           1
@<TRIPOS>SET
DONOR_HYDROGENS      STATIC     ATOMS    <user>   **** ""
2 24 25
ATOM$RED        STATIC     ATOMS    COLORGROUP SYSTEM
2 24 25
@<TRIPOS>COMMENT
> <Gold.Version>
2022.2.0

> <Gold.Id.Protein>
3pbl|protein|mol2

> <Gold.Protein.RotatedTorsions>
[ 1303 1298 1297 1294 ] final  -27.01 input  179.99 | X-H torsion
[ 2461 2456 2455 2452 ] final -158.05 input   30.03 | X-H torsion
[ 2515 2510 2509 2506 ] final   46.58 input  -89.99 | X-H torsion
[ 3721 3712 3711 3710 ] final  128.31 input -179.91 | X-H torsion
[ 3841 3832 3831 3830 ] final  177.28 input -179.91 | X-H torsion
[ 3767 3762 3761 3758 ] final  -26.54 input  -89.99 | X-H torsion
[ 2472 2467 2466 2463 ] final  159.21 input  -89.97 | X-H torsion

> <Gold.Protein.ActiveResidues>
 VAL82   VAL86   LEU89   PHE106  VAL107  ASP110  VAL111  MET112  CYS114  THR115 
 CYS181  SER182  ILE183  PHE188  VAL189  ILE190  SER192  SER193  SER196  TRP342 
 PHE345  PHE346  HIS349  VAL350  TYR365  THR369  GLY372  TYR373 

> <Gold.Protein.RotatedAtoms>
    3.3327   -9.4790    3.8575 H   0  0  0  0  0  0  0  0  0  0  0  0  # atno 1303 bound_to 1298
    1.1024   -9.2867    8.3493 H   0  0  0  0  0  0  0  0  0  0  0  0  # atno 2461 bound_to 2456
   -5.4840   -5.2953    8.7219 H   0  0  0  0  0  0  0  0  0  0  0  0  # atno 2472 bound_to 2467
    2.2247   -7.4140    5.2476 H   0  0  0  0  0  0  0  0  0  0  0  0  # atno 2515 bound_to 2510
   -3.0686  -17.1252   13.0587 H   0  0  0  0  0  0  0  0  0  0  0  0  # atno 3721 bound_to 3712
   -5.4890  -22.3921   10.3809 H   0  0  0  0  0  0  0  0  0  0  0  0  # atno 3767 bound_to 3762
    2.9806  -20.0813    8.4253 H   0  0  0  0  0  0  0  0  0  0  0  0  # atno 3841 bound_to 3832
    4.5768   -8.5486    4.3603 LP  0  0  0  0  0  0  0  0  0  0  0  0  # atno 4297 bound_to 1298
    4.4531  -10.0937    4.8740 LP  0  0  0  0  0  0  0  0  0  0  0  0  # atno 4298 bound_to 1298
    2.1005   -8.2147    7.6268 LP  0  0  0  0  0  0  0  0  0  0  0  0  # atno 4299 bound_to 2456
    0.5348   -8.3069    7.1723 LP  0  0  0  0  0  0  0  0  0  0  0  0  # atno 4300 bound_to 2456
    2.8358   -8.7066    4.4593 LP  0  0  0  0  0  0  0  0  0  0  0  0  # atno 4301 bound_to 2510
    2.2363   -8.8789    5.9684 LP  0  0  0  0  0  0  0  0  0  0  0  0  # atno 4302 bound_to 2510
   -2.6133  -18.1710   14.1886 LP  0  0  0  0  0  0  0  0  0  0  0  0  # atno 4306 bound_to 3712
   -3.3716  -16.7840   14.5980 LP  0  0  0  0  0  0  0  0  0  0  0  0  # atno 4307 bound_to 3712
    2.3323  -21.1294    9.4535 LP  0  0  0  0  0  0  0  0  0  0  0  0  # atno 4314 bound_to 3832
    1.4540  -19.8789    8.8777 LP  0  0  0  0  0  0  0  0  0  0  0  0  # atno 4315 bound_to 3832
   -4.4813  -22.1600   11.6448 LP  0  0  0  0  0  0  0  0  0  0  0  0  # atno 4318 bound_to 3762
   -4.1573  -23.3229   10.5452 LP  0  0  0  0  0  0  0  0  0  0  0  0  # atno 4319 bound_to 3762
   -4.3067   -4.7985    7.7052 LP  0  0  0  0  0  0  0  0  0  0  0  0  # atno 4320 bound_to 2467
   -3.9264   -5.2998    9.2121 LP  0  0  0  0  0  0  0  0  0  0  0  0  # atno 4321 bound_to 2467

> <Gold.Score>
     Score     S(PLP)   S(hbond)     S(cho)   S(metal)  DE(clash)   DE(tors)     intcor
     45.30     -38.25       3.00       0.00       0.00       1.25       0.68       0.67

> <Gold.PLP.Fitness>
45.3031

> <Gold.PLP.PLP>
-38.2544

> <Gold.PLP.part.hbond>
-2.0000

> <Gold.PLP.part.metal>
0.0000

> <Gold.PLP.part.buried>
-2.8747

> <Gold.PLP.part.nonpolar>
-34.1277

> <Gold.PLP.part.repulsive>
0.0000

> <Gold.PLP.ligand.clash>
1.2536

> <Gold.PLP.ligand.torsion>
0.6843

> <Gold.PLP.Chemscore.Hbond>
3.0000

> <Gold.PLP.Chemscore.CHOScore>
0.0000

> <Gold.PLP.Chemscore.Metal>
0.0000

> <Gold.Chemscore.Hbonds>
donor molecule, donor type, donor heavy atom, donor atom, acceptor molecule, acceptor atom, score
      L1  H     2    25       P1  1227  2.00
      P1  H  2456  2461       L1     8  1.00

> <Gold.PLP.Chemscore.Internal.Correction>
0.6709

