#       Name:                EN300-06567_i001
#       Creating user name   fsindt
#       Creation time:       Tue Feb 28 08:16:55 2023


#       File generated by GOLD software.
#

@<TRIPOS>MOLECULE
EN300-06567_i001|amine_7|mol2|4380|dock19
    25    25     1
SMALL
USER_CHARGES


@<TRIPOS>ATOM
      1 C1           0.8251 -14.3852   8.0238 C.3            1 <1>                0.0000
      2 N2           0.7774 -15.2300   9.2246 N.4            1 <1>                1.0000
      3 C3           1.1468 -14.4308  10.4005 C.3            1 <1>                0.0000
      4 C4           1.1086 -15.3001  11.6309 C.ar           1 <1>                0.0000
      5 C5          -0.1064 -15.6658  12.1802 C.ar           1 <1>                0.0000
      6 C6          -0.1441 -16.4622  13.3084 C.ar           1 <1>                0.0000
      7 C7           1.0387 -16.8956  13.8899 C.ar           1 <1>                0.0000
      8 O8           1.0042 -17.6795  14.9995 O.3            1 <1>                0.0000
      9 C9          -0.1295 -18.5356  15.1539 C.3            1 <1>                0.0000
     10 C10          2.2564 -16.5277  13.3365 C.ar           1 <1>                0.0000
     11 C11          2.2886 -15.7354  12.2053 C.ar           1 <1>                0.0000
     12 H12          1.8344 -13.9939   7.8947 H              1 <1>                0.0000
     13 H13          0.5512 -14.9782   7.1512 H              1 <1>                0.0000
     14 H14          0.1256 -13.5566   8.1344 H              1 <1>                0.0000
     15 H15          2.1528 -14.0328  10.2680 H              1 <1>                0.0000
     16 H16          0.4424 -13.6070  10.5158 H              1 <1>                0.0000
     17 H17         -1.0268 -15.3282  11.7271 H              1 <1>                0.0000
     18 H18         -1.0933 -16.7470  13.7374 H              1 <1>                0.0000
     19 H19         -0.0316 -19.1049  16.0782 H              1 <1>                0.0000
     20 H20         -1.0371 -17.9333  15.1924 H              1 <1>                0.0000
     21 H21         -0.1844 -19.2218  14.3087 H              1 <1>                0.0000
     22 H22          3.1785 -16.8634  13.7876 H              1 <1>                0.0000
     23 H23          3.2364 -15.4490  11.7740 H              1 <1>                0.0000
     24 H24         -0.1567 -15.5921   9.3440 H              1 <1>                0.0000
     25 H25          1.4250 -15.9969   9.1223 H              1 <1>                0.0000
@<TRIPOS>BOND
    1    1    2 1     
    2    1   12 1     
    3    1   13 1     
    4    1   14 1     
    5    2    3 1     
    6    2   24 1     
    7    2   25 1     
    8    3    4 1     
    9    3   15 1     
   10    3   16 1     
   11    4    5 ar    
   12    4   11 ar    
   13    5    6 ar    
   14    5   17 1     
   15    6    7 ar    
   16    6   18 1     
   17    7    8 1     
   18    7   10 ar    
   19    8    9 1     
   20    9   19 1     
   21    9   20 1     
   22    9   21 1     
   23   10   11 ar    
   24   10   22 1     
   25   11   23 1     
@<TRIPOS>SUBSTRUCTURE
      1 ****           1
@<TRIPOS>SET
DONOR_HYDROGENS      STATIC     ATOMS    <user>   **** ""
2 24 25
ATOM$RED        STATIC     ATOMS    COLORGROUP SYSTEM
2 24 25
@<TRIPOS>COMMENT
> <Gold.Version>
2022.2.0

> <Gold.Id.Protein>
3pbl|protein|mol2

> <Gold.Protein.RotatedTorsions>
[ 1303 1298 1297 1294 ] final  107.73 input  179.99 | X-H torsion
[ 2461 2456 2455 2452 ] final   -1.29 input   30.03 | X-H torsion
[ 2515 2510 2509 2506 ] final  140.14 input  -89.99 | X-H torsion
[ 3721 3712 3711 3710 ] final  -92.76 input -179.91 | X-H torsion
[ 3841 3832 3831 3830 ] final -167.86 input -179.91 | X-H torsion
[ 3767 3762 3761 3758 ] final  -35.74 input  -89.99 | X-H torsion
[ 2472 2467 2466 2463 ] final  112.94 input  -89.97 | X-H torsion

> <Gold.Protein.ActiveResidues>
 VAL82   VAL86   LEU89   PHE106  VAL107  ASP110  VAL111  MET112  CYS114  THR115 
 CYS181  SER182  ILE183  PHE188  VAL189  ILE190  SER192  SER193  SER196  TRP342 
 PHE345  PHE346  HIS349  VAL350  TYR365  THR369  GLY372  TYR373 

> <Gold.Protein.RotatedAtoms>
    4.6244   -9.9331    4.9313 H   0  0  0  0  0  0  0  0  0  0  0  0  # atno 1303 bound_to 1298
    1.0210   -7.9952    7.0307 H   0  0  0  0  0  0  0  0  0  0  0  0  # atno 2461 bound_to 2456
   -5.3611   -5.0356    8.0389 H   0  0  0  0  0  0  0  0  0  0  0  0  # atno 2472 bound_to 2467
    2.0999   -8.4893    6.0930 H   0  0  0  0  0  0  0  0  0  0  0  0  # atno 2515 bound_to 2510
   -3.0448  -16.9170   14.6674 H   0  0  0  0  0  0  0  0  0  0  0  0  # atno 3721 bound_to 3712
   -5.5089  -22.2877   10.4885 H   0  0  0  0  0  0  0  0  0  0  0  0  # atno 3767 bound_to 3762
    2.8401  -19.9176    8.3657 H   0  0  0  0  0  0  0  0  0  0  0  0  # atno 3841 bound_to 3832
    3.3405   -9.7026    3.9491 LP  0  0  0  0  0  0  0  0  0  0  0  0  # atno 4297 bound_to 1298
    4.3971   -8.4854    4.2110 LP  0  0  0  0  0  0  0  0  0  0  0  0  # atno 4298 bound_to 1298
    0.5900   -9.1824    8.0661 LP  0  0  0  0  0  0  0  0  0  0  0  0  # atno 4299 bound_to 2456
    2.1267   -8.6304    8.0511 LP  0  0  0  0  0  0  0  0  0  0  0  0  # atno 4300 bound_to 2456
    2.4003   -7.4656    4.8572 LP  0  0  0  0  0  0  0  0  0  0  0  0  # atno 4301 bound_to 2510
    2.7966   -9.0442    4.7246 LP  0  0  0  0  0  0  0  0  0  0  0  0  # atno 4302 bound_to 2510
   -3.3938  -16.9776   13.1013 LP  0  0  0  0  0  0  0  0  0  0  0  0  # atno 4306 bound_to 3712
   -2.6186  -18.2177   13.8280 LP  0  0  0  0  0  0  0  0  0  0  0  0  # atno 4307 bound_to 3712
    2.5519  -21.1578    9.3429 LP  0  0  0  0  0  0  0  0  0  0  0  0  # atno 4314 bound_to 3832
    1.3967  -20.0397    9.0571 LP  0  0  0  0  0  0  0  0  0  0  0  0  # atno 4315 bound_to 3832
   -4.3614  -22.2518   11.6498 LP  0  0  0  0  0  0  0  0  0  0  0  0  # atno 4318 bound_to 3762
   -4.2574  -23.3354   10.4326 LP  0  0  0  0  0  0  0  0  0  0  0  0  # atno 4319 bound_to 3762
   -3.7388   -4.9033    8.1693 LP  0  0  0  0  0  0  0  0  0  0  0  0  # atno 4320 bound_to 2467
   -4.6171   -5.4546    9.4308 LP  0  0  0  0  0  0  0  0  0  0  0  0  # atno 4321 bound_to 2467

> <Gold.Score>
     Score     S(PLP)   S(hbond)     S(cho)   S(metal)  DE(clash)   DE(tors)     intcor
     38.04     -32.49       2.00       0.00       0.00       0.00       0.56       0.67

> <Gold.PLP.Fitness>
38.0437

> <Gold.PLP.PLP>
-32.4949

> <Gold.PLP.part.hbond>
-1.0000

> <Gold.PLP.part.metal>
0.0000

> <Gold.PLP.part.buried>
-2.7870

> <Gold.PLP.part.nonpolar>
-30.1086

> <Gold.PLP.part.repulsive>
0.0749

> <Gold.PLP.ligand.clash>
0.0000

> <Gold.PLP.ligand.torsion>
0.5611

> <Gold.PLP.Chemscore.Hbond>
2.0000

> <Gold.PLP.Chemscore.CHOScore>
0.0000

> <Gold.PLP.Chemscore.Metal>
0.0000

> <Gold.Chemscore.Hbonds>
donor molecule, donor type, donor heavy atom, donor atom, acceptor molecule, acceptor atom, score
      L1  H     2    25       P1  1227  2.00

> <Gold.PLP.Chemscore.Internal.Correction>
0.6709

