#       Name:                EN300-06567_i001
#       Creating user name   fsindt
#       Creation time:       Tue Feb 28 08:16:52 2023


#       File generated by GOLD software.
#

@<TRIPOS>MOLECULE
EN300-06567_i001|amine_7|mol2|4380|dock14
    25    25     1
SMALL
USER_CHARGES


@<TRIPOS>ATOM
      1 C1          -0.6900 -17.5345   8.4097 C.3            1 <1>                0.0000
      2 N2           0.2435 -16.4399   8.7066 N.4            1 <1>                1.0000
      3 C3           0.4068 -15.5983   7.5137 C.3            1 <1>                0.0000
      4 C4           0.1483 -14.1585   7.8755 C.ar           1 <1>                0.0000
      5 C5          -0.6556 -13.8524   8.9580 C.ar           1 <1>                0.0000
      6 C6          -0.8946 -12.5332   9.2914 C.ar           1 <1>                0.0000
      7 C7          -0.3267 -11.5151   8.5393 C.ar           1 <1>                0.0000
      8 O8          -0.5598 -10.2166   8.8655 O.3            1 <1>                0.0000
      9 C9          -1.7575  -9.9355   9.5927 C.3            1 <1>                0.0000
     10 C10          0.4800 -11.8249   7.4540 C.ar           1 <1>                0.0000
     11 C11          0.7200 -13.1456   7.1278 C.ar           1 <1>                0.0000
     12 H12         -0.2951 -18.1369   7.5914 H              1 <1>                0.0000
     13 H13         -0.8111 -18.1590   9.2948 H              1 <1>                0.0000
     14 H14         -1.6563 -17.1201   8.1223 H              1 <1>                0.0000
     15 H15          1.4231 -15.7006   7.1333 H              1 <1>                0.0000
     16 H16         -0.3014 -15.9131   6.7473 H              1 <1>                0.0000
     17 H17         -1.0974 -14.6454   9.5432 H              1 <1>                0.0000
     18 H18         -1.5231 -12.2947  10.1366 H              1 <1>                0.0000
     19 H19         -1.8211  -8.8651   9.7880 H              1 <1>                0.0000
     20 H20         -2.6208 -10.2498   9.0062 H              1 <1>                0.0000
     21 H21         -1.7439 -10.4772  10.5384 H              1 <1>                0.0000
     22 H22          0.9229 -11.0341   6.8667 H              1 <1>                0.0000
     23 H23          1.3482 -13.3872   6.2831 H              1 <1>                0.0000
     24 H24         -0.1220 -15.8824   9.4641 H              1 <1>                0.0000
     25 H25          1.1381 -16.8235   8.9726 H              1 <1>                0.0000
@<TRIPOS>BOND
    1    1    2 1     
    2    1   12 1     
    3    1   13 1     
    4    1   14 1     
    5    2    3 1     
    6    2   24 1     
    7    2   25 1     
    8    3    4 1     
    9    3   15 1     
   10    3   16 1     
   11    4    5 ar    
   12    4   11 ar    
   13    5    6 ar    
   14    5   17 1     
   15    6    7 ar    
   16    6   18 1     
   17    7    8 1     
   18    7   10 ar    
   19    8    9 1     
   20    9   19 1     
   21    9   20 1     
   22    9   21 1     
   23   10   11 ar    
   24   10   22 1     
   25   11   23 1     
@<TRIPOS>SUBSTRUCTURE
      1 ****           1
@<TRIPOS>SET
DONOR_HYDROGENS      STATIC     ATOMS    <user>   **** ""
2 24 25
ATOM$RED        STATIC     ATOMS    COLORGROUP SYSTEM
2 24 25
@<TRIPOS>COMMENT
> <Gold.Version>
2022.2.0

> <Gold.Id.Protein>
3pbl|protein|mol2

> <Gold.Protein.RotatedTorsions>
[ 1303 1298 1297 1294 ] final  -51.81 input  179.99 | X-H torsion
[ 2461 2456 2455 2452 ] final -113.69 input   30.03 | X-H torsion
[ 2515 2510 2509 2506 ] final  -10.12 input  -89.99 | X-H torsion
[ 3721 3712 3711 3710 ] final  -73.38 input -179.91 | X-H torsion
[ 3841 3832 3831 3830 ] final   57.35 input -179.91 | X-H torsion
[ 3767 3762 3761 3758 ] final -128.91 input  -89.99 | X-H torsion
[ 2472 2467 2466 2463 ] final -128.40 input  -89.97 | X-H torsion

> <Gold.Protein.ActiveResidues>
 VAL82   VAL86   LEU89   PHE106  VAL107  ASP110  VAL111  MET112  CYS114  THR115 
 CYS181  SER182  ILE183  PHE188  VAL189  ILE190  SER192  SER193  SER196  TRP342 
 PHE345  PHE346  HIS349  VAL350  TYR365  THR369  GLY372  TYR373 

> <Gold.Protein.RotatedAtoms>
    3.4353   -9.0951    3.7799 H   0  0  0  0  0  0  0  0  0  0  0  0  # atno 1303 bound_to 1298
    0.5111   -9.1290    7.9853 H   0  0  0  0  0  0  0  0  0  0  0  0  # atno 2461 bound_to 2456
   -4.6389   -5.4570    9.4286 H   0  0  0  0  0  0  0  0  0  0  0  0  # atno 2472 bound_to 2467
    2.6075   -7.7453    4.5095 H   0  0  0  0  0  0  0  0  0  0  0  0  # atno 2515 bound_to 2510
   -2.9005  -17.1559   14.7515 H   0  0  0  0  0  0  0  0  0  0  0  0  # atno 3721 bound_to 3712
   -4.7246  -22.0185   11.5789 H   0  0  0  0  0  0  0  0  0  0  0  0  # atno 3767 bound_to 3762
    2.4348  -20.9362    9.5287 H   0  0  0  0  0  0  0  0  0  0  0  0  # atno 3841 bound_to 3832
    4.8060   -8.7736    4.6069 LP  0  0  0  0  0  0  0  0  0  0  0  0  # atno 4297 bound_to 1298
    4.1211  -10.2527    4.7050 LP  0  0  0  0  0  0  0  0  0  0  0  0  # atno 4298 bound_to 1298
    2.0861   -8.7207    8.1272 LP  0  0  0  0  0  0  0  0  0  0  0  0  # atno 4299 bound_to 2456
    1.1403   -7.9586    7.0357 LP  0  0  0  0  0  0  0  0  0  0  0  0  # atno 4300 bound_to 2456
    2.6595   -9.2452    5.1525 LP  0  0  0  0  0  0  0  0  0  0  0  0  # atno 4301 bound_to 2510
    2.0296   -8.0089    6.0136 LP  0  0  0  0  0  0  0  0  0  0  0  0  # atno 4302 bound_to 2510
   -3.4991  -16.7607   13.3150 LP  0  0  0  0  0  0  0  0  0  0  0  0  # atno 4306 bound_to 3712
   -2.6800  -18.1588   13.5172 LP  0  0  0  0  0  0  0  0  0  0  0  0  # atno 4307 bound_to 3712
    1.4716  -19.8514    8.8421 LP  0  0  0  0  0  0  0  0  0  0  0  0  # atno 4314 bound_to 3832
    2.9452  -20.1694    8.2144 LP  0  0  0  0  0  0  0  0  0  0  0  0  # atno 4315 bound_to 3832
   -4.0069  -23.2494   10.7810 LP  0  0  0  0  0  0  0  0  0  0  0  0  # atno 4318 bound_to 3762
   -5.3959  -22.6069   10.2114 LP  0  0  0  0  0  0  0  0  0  0  0  0  # atno 4319 bound_to 3762
   -5.3491   -5.0275    8.0224 LP  0  0  0  0  0  0  0  0  0  0  0  0  # atno 4320 bound_to 2467
   -3.7289   -4.9091    8.1883 LP  0  0  0  0  0  0  0  0  0  0  0  0  # atno 4321 bound_to 2467

> <Gold.Score>
     Score     S(PLP)   S(hbond)     S(cho)   S(metal)  DE(clash)   DE(tors)     intcor
     42.75     -35.19       3.00       0.00       0.00       0.00       1.06       0.67

> <Gold.PLP.Fitness>
42.7496

> <Gold.PLP.PLP>
-35.1918

> <Gold.PLP.part.hbond>
-2.0000

> <Gold.PLP.part.metal>
0.0000

> <Gold.PLP.part.buried>
-2.1074

> <Gold.PLP.part.nonpolar>
-30.7091

> <Gold.PLP.part.repulsive>
0.0351

> <Gold.PLP.ligand.clash>
0.0000

> <Gold.PLP.ligand.torsion>
1.0566

> <Gold.PLP.Chemscore.Hbond>
3.0000

> <Gold.PLP.Chemscore.CHOScore>
0.0000

> <Gold.PLP.Chemscore.Metal>
0.0000

> <Gold.Chemscore.Hbonds>
donor molecule, donor type, donor heavy atom, donor atom, acceptor molecule, acceptor atom, score
      L1  H     2    25       P1  1227  2.00
      P1  H  2456  2461       L1     8  1.00

> <Gold.PLP.Chemscore.Internal.Correction>
0.6709

