#       Name:                EN300-06567_i001
#       Creating user name   fsindt
#       Creation time:       Tue Feb 28 08:16:48 2023


#       File generated by GOLD software.
#

@<TRIPOS>MOLECULE
EN300-06567_i001|amine_7|mol2|4380|dock8
    25    25     1
SMALL
USER_CHARGES


@<TRIPOS>ATOM
      1 C1          -0.6681 -18.9616  10.3813 C.3            1 <1>                0.0000
      2 N2          -0.0125 -17.7114   9.9751 N.4            1 <1>                1.0000
      3 C3          -0.6506 -17.1974   8.7559 C.3            1 <1>                0.0000
      4 C4          -0.1019 -15.8299   8.4399 C.ar           1 <1>                0.0000
      5 C5          -0.1005 -14.8455   9.4107 C.ar           1 <1>                0.0000
      6 C6           0.4015 -13.5909   9.1234 C.ar           1 <1>                0.0000
      7 C7           0.9050 -13.3194   7.8595 C.ar           1 <1>                0.0000
      8 O8           1.3999 -12.0862   7.5745 O.3            1 <1>                0.0000
      9 C9           1.4203 -11.6972   6.1996 C.3            1 <1>                0.0000
     10 C10          0.9030 -14.3090   6.8873 C.ar           1 <1>                0.0000
     11 C11          0.4045 -15.5634   7.1812 C.ar           1 <1>                0.0000
     12 H12         -0.5727 -19.6979   9.5831 H              1 <1>                0.0000
     13 H13         -0.1946 -19.3430  11.2859 H              1 <1>                0.0000
     14 H14         -1.7237 -18.7716  10.5760 H              1 <1>                0.0000
     15 H15         -0.4443 -17.8725   7.9254 H              1 <1>                0.0000
     16 H16         -1.7275 -17.1299   8.9103 H              1 <1>                0.0000
     17 H17         -0.4926 -15.0574  10.3945 H              1 <1>                0.0000
     18 H18          0.4017 -12.8221   9.8819 H              1 <1>                0.0000
     19 H19          1.8379 -10.6943   6.1119 H              1 <1>                0.0000
     20 H20          2.0342 -12.3973   5.6330 H              1 <1>                0.0000
     21 H21          0.4041 -11.7034   5.8052 H              1 <1>                0.0000
     22 H22          1.2940 -14.1000   5.9025 H              1 <1>                0.0000
     23 H23          0.4031 -16.3343   6.4247 H              1 <1>                0.0000
     24 H24         -0.1008 -17.0299  10.7139 H              1 <1>                0.0000
     25 H25          0.9646 -17.8872   9.7947 H              1 <1>                0.0000
@<TRIPOS>BOND
    1    1    2 1     
    2    1   12 1     
    3    1   13 1     
    4    1   14 1     
    5    2    3 1     
    6    2   24 1     
    7    2   25 1     
    8    3    4 1     
    9    3   15 1     
   10    3   16 1     
   11    4    5 ar    
   12    4   11 ar    
   13    5    6 ar    
   14    5   17 1     
   15    6    7 ar    
   16    6   18 1     
   17    7    8 1     
   18    7   10 ar    
   19    8    9 1     
   20    9   19 1     
   21    9   20 1     
   22    9   21 1     
   23   10   11 ar    
   24   10   22 1     
   25   11   23 1     
@<TRIPOS>SUBSTRUCTURE
      1 ****           1
@<TRIPOS>SET
DONOR_HYDROGENS      STATIC     ATOMS    <user>   **** ""
2 24 25
ATOM$RED        STATIC     ATOMS    COLORGROUP SYSTEM
2 24 25
@<TRIPOS>COMMENT
> <Gold.Version>
2022.2.0

> <Gold.Id.Protein>
3pbl|protein|mol2

> <Gold.Protein.RotatedTorsions>
[ 1303 1298 1297 1294 ] final -161.28 input  179.99 | X-H torsion
[ 2461 2456 2455 2452 ] final -144.84 input   30.03 | X-H torsion
[ 2515 2510 2509 2506 ] final  108.47 input  -89.99 | X-H torsion
[ 3721 3712 3711 3710 ] final  146.08 input -179.91 | X-H torsion
[ 3841 3832 3831 3830 ] final   89.68 input -179.91 | X-H torsion
[ 3767 3762 3761 3758 ] final -148.78 input  -89.99 | X-H torsion
[ 2472 2467 2466 2463 ] final -109.23 input  -89.97 | X-H torsion

> <Gold.Protein.ActiveResidues>
 VAL82   VAL86   LEU89   PHE106  VAL107  ASP110  VAL111  MET112  CYS114  THR115 
 CYS181  SER182  ILE183  PHE188  VAL189  ILE190  SER192  SER193  SER196  TRP342 
 PHE345  PHE346  HIS349  VAL350  TYR365  THR369  GLY372  TYR373 

> <Gold.Protein.RotatedAtoms>
    4.7217   -8.6615    4.5055 H   0  0  0  0  0  0  0  0  0  0  0  0  # atno 1303 bound_to 1298
    0.8996   -9.2808    8.2725 H   0  0  0  0  0  0  0  0  0  0  0  0  # atno 2461 bound_to 2456
   -4.3279   -5.4165    9.4111 H   0  0  0  0  0  0  0  0  0  0  0  0  # atno 2472 bound_to 2467
    2.0293   -7.9877    6.0039 H   0  0  0  0  0  0  0  0  0  0  0  0  # atno 2515 bound_to 2510
   -3.1835  -16.9082   13.1647 H   0  0  0  0  0  0  0  0  0  0  0  0  # atno 3721 bound_to 3712
   -4.4511  -22.1807   11.6477 H   0  0  0  0  0  0  0  0  0  0  0  0  # atno 3767 bound_to 3762
    2.8390  -20.9229    9.2665 H   0  0  0  0  0  0  0  0  0  0  0  0  # atno 3841 bound_to 3832
    4.2656  -10.2041    4.7865 LP  0  0  0  0  0  0  0  0  0  0  0  0  # atno 4297 bound_to 1298
    3.3747   -9.2560    3.7995 LP  0  0  0  0  0  0  0  0  0  0  0  0  # atno 4298 bound_to 1298
    2.1528   -8.3542    7.7844 LP  0  0  0  0  0  0  0  0  0  0  0  0  # atno 4299 bound_to 2456
    0.6853   -8.1734    7.0914 LP  0  0  0  0  0  0  0  0  0  0  0  0  # atno 4300 bound_to 2456
    2.6164   -7.7629    4.4971 LP  0  0  0  0  0  0  0  0  0  0  0  0  # atno 4301 bound_to 2510
    2.6512   -9.2487    5.1738 LP  0  0  0  0  0  0  0  0  0  0  0  0  # atno 4302 bound_to 2510
   -2.6123  -18.2181   13.8968 LP  0  0  0  0  0  0  0  0  0  0  0  0  # atno 4306 bound_to 3712
   -3.2400  -16.9874   14.7674 LP  0  0  0  0  0  0  0  0  0  0  0  0  # atno 4307 bound_to 3712
    1.3965  -20.2206    9.2192 LP  0  0  0  0  0  0  0  0  0  0  0  0  # atno 4314 bound_to 3832
    2.5534  -19.8156    8.1402 LP  0  0  0  0  0  0  0  0  0  0  0  0  # atno 4315 bound_to 3832
   -4.1803  -23.3276   10.5171 LP  0  0  0  0  0  0  0  0  0  0  0  0  # atno 4318 bound_to 3762
   -5.4959  -22.3666   10.4065 LP  0  0  0  0  0  0  0  0  0  0  0  0  # atno 4319 bound_to 3762
   -5.4786   -5.1370    8.2867 LP  0  0  0  0  0  0  0  0  0  0  0  0  # atno 4320 bound_to 2467
   -3.9104   -4.8401    7.9415 LP  0  0  0  0  0  0  0  0  0  0  0  0  # atno 4321 bound_to 2467

> <Gold.Score>
     Score     S(PLP)   S(hbond)     S(cho)   S(metal)  DE(clash)   DE(tors)     intcor
     42.73     -36.87       2.00       0.00       0.00       0.00       0.40       0.67

> <Gold.PLP.Fitness>
42.7339

> <Gold.PLP.PLP>
-36.8719

> <Gold.PLP.part.hbond>
-1.0000

> <Gold.PLP.part.metal>
0.0000

> <Gold.PLP.part.buried>
-4.5615

> <Gold.PLP.part.nonpolar>
-29.8479

> <Gold.PLP.part.repulsive>
0.0517

> <Gold.PLP.ligand.clash>
0.0039

> <Gold.PLP.ligand.torsion>
0.4025

> <Gold.PLP.Chemscore.Hbond>
2.0000

> <Gold.PLP.Chemscore.CHOScore>
0.0000

> <Gold.PLP.Chemscore.Metal>
0.0000

> <Gold.Chemscore.Hbonds>
donor molecule, donor type, donor heavy atom, donor atom, acceptor molecule, acceptor atom, score
      L1  H     2    25       P1  1227  2.00

> <Gold.PLP.Chemscore.Internal.Correction>
0.6709

