#       Name:                EN300-06567_i001
#       Creating user name   fsindt
#       Creation time:       Tue Feb 28 08:16:47 2023


#       File generated by GOLD software.
#

@<TRIPOS>MOLECULE
EN300-06567_i001|amine_7|mol2|4380|dock6
    25    25     1
SMALL
USER_CHARGES


@<TRIPOS>ATOM
      1 C1           0.1814 -15.6361   7.7307 C.3            1 <1>                0.0000
      2 N2           1.4724 -15.1326   8.2182 N.4            1 <1>                1.0000
      3 C3           1.2435 -14.0302   9.1616 C.3            1 <1>                0.0000
      4 C4           1.0883 -14.5848  10.5542 C.ar           1 <1>                0.0000
      5 C5           2.1547 -15.2141  11.1693 C.ar           1 <1>                0.0000
      6 C6           2.0149 -15.7238  12.4457 C.ar           1 <1>                0.0000
      7 C7           0.8031 -15.6034  13.1105 C.ar           1 <1>                0.0000
      8 O8           0.6632 -16.1036  14.3663 O.3            1 <1>                0.0000
      9 C9           1.4626 -17.2386  14.7052 C.3            1 <1>                0.0000
     10 C10         -0.2652 -14.9711  12.4913 C.ar           1 <1>                0.0000
     11 C11         -0.1187 -14.4585  11.2168 C.ar           1 <1>                0.0000
     12 H12         -0.3552 -14.8322   7.2267 H              1 <1>                0.0000
     13 H13          0.3513 -16.4541   7.0306 H              1 <1>                0.0000
     14 H14         -0.4099 -15.9955   8.5729 H              1 <1>                0.0000
     15 H15          2.0924 -13.3470   9.1351 H              1 <1>                0.0000
     16 H16          0.3369 -13.4942   8.8809 H              1 <1>                0.0000
     17 H17          3.0978 -15.3076  10.6513 H              1 <1>                0.0000
     18 H18          2.8480 -16.2159  12.9254 H              1 <1>                0.0000
     19 H19          1.2542 -17.5358  15.7330 H              1 <1>                0.0000
     20 H20          1.2257 -18.0635  14.0333 H              1 <1>                0.0000
     21 H21          2.5175 -16.9822  14.6080 H              1 <1>                0.0000
     22 H22         -1.2096 -14.8764  13.0066 H              1 <1>                0.0000
     23 H23         -0.9500 -13.9659  10.7346 H              1 <1>                0.0000
     24 H24          1.9691 -15.8768   8.6847 H              1 <1>                0.0000
     25 H25          2.0198 -14.7999   7.4386 H              1 <1>                0.0000
@<TRIPOS>BOND
    1    1    2 1     
    2    1   12 1     
    3    1   13 1     
    4    1   14 1     
    5    2    3 1     
    6    2   24 1     
    7    2   25 1     
    8    3    4 1     
    9    3   15 1     
   10    3   16 1     
   11    4    5 ar    
   12    4   11 ar    
   13    5    6 ar    
   14    5   17 1     
   15    6    7 ar    
   16    6   18 1     
   17    7    8 1     
   18    7   10 ar    
   19    8    9 1     
   20    9   19 1     
   21    9   20 1     
   22    9   21 1     
   23   10   11 ar    
   24   10   22 1     
   25   11   23 1     
@<TRIPOS>SUBSTRUCTURE
      1 ****           1
@<TRIPOS>SET
DONOR_HYDROGENS      STATIC     ATOMS    <user>   **** ""
2 24 25
ATOM$RED        STATIC     ATOMS    COLORGROUP SYSTEM
2 24 25
@<TRIPOS>COMMENT
> <Gold.Version>
2022.2.0

> <Gold.Id.Protein>
3pbl|protein|mol2

> <Gold.Protein.RotatedTorsions>
[ 1303 1298 1297 1294 ] final  140.17 input  179.99 | X-H torsion
[ 2461 2456 2455 2452 ] final  178.54 input   30.03 | X-H torsion
[ 2515 2510 2509 2506 ] final   52.53 input  -89.99 | X-H torsion
[ 3721 3712 3711 3710 ] final  142.56 input -179.91 | X-H torsion
[ 3841 3832 3831 3830 ] final -158.31 input -179.91 | X-H torsion
[ 3767 3762 3761 3758 ] final  -30.96 input  -89.99 | X-H torsion
[ 2472 2467 2466 2463 ] final -115.03 input  -89.97 | X-H torsion

> <Gold.Protein.ActiveResidues>
 VAL82   VAL86   LEU89   PHE106  VAL107  ASP110  VAL111  MET112  CYS114  THR115 
 CYS181  SER182  ILE183  PHE188  VAL189  ILE190  SER192  SER193  SER196  TRP342 
 PHE345  PHE346  HIS349  VAL350  TYR365  THR369  GLY372  TYR373 

> <Gold.Protein.RotatedAtoms>
    4.8729   -9.4690    4.9239 H   0  0  0  0  0  0  0  0  0  0  0  0  # atno 1303 bound_to 1298
    1.4736   -9.2092    8.4014 H   0  0  0  0  0  0  0  0  0  0  0  0  # atno 2461 bound_to 2456
   -4.4207   -5.4324    9.4268 H   0  0  0  0  0  0  0  0  0  0  0  0  # atno 2472 bound_to 2467
    2.1899   -7.4293    5.3378 H   0  0  0  0  0  0  0  0  0  0  0  0  # atno 2515 bound_to 2510
   -3.1625  -16.9490   13.1378 H   0  0  0  0  0  0  0  0  0  0  0  0  # atno 3721 bound_to 3712
   -5.5011  -22.3411   10.4312 H   0  0  0  0  0  0  0  0  0  0  0  0  # atno 3767 bound_to 3762
    2.7316  -19.8240    8.3492 H   0  0  0  0  0  0  0  0  0  0  0  0  # atno 3841 bound_to 3832
    3.5327  -10.0997    4.2367 LP  0  0  0  0  0  0  0  0  0  0  0  0  # atno 4297 bound_to 1298
    3.9563   -8.5526    3.9307 LP  0  0  0  0  0  0  0  0  0  0  0  0  # atno 4298 bound_to 1298
    1.8999   -8.0219    7.3641 LP  0  0  0  0  0  0  0  0  0  0  0  0  # atno 4299 bound_to 2456
    0.3644   -8.5772    7.3828 LP  0  0  0  0  0  0  0  0  0  0  0  0  # atno 4300 bound_to 2456
    2.8329   -8.6169    4.4202 LP  0  0  0  0  0  0  0  0  0  0  0  0  # atno 4301 bound_to 2510
    2.2740   -8.9534    5.9172 LP  0  0  0  0  0  0  0  0  0  0  0  0  # atno 4302 bound_to 2510
   -2.6088  -18.2150   13.9554 LP  0  0  0  0  0  0  0  0  0  0  0  0  # atno 4306 bound_to 3712
   -3.2677  -16.9434   14.7399 LP  0  0  0  0  0  0  0  0  0  0  0  0  # atno 4307 bound_to 3712
    2.6837  -21.1492    9.2535 LP  0  0  0  0  0  0  0  0  0  0  0  0  # atno 4314 bound_to 3832
    1.3902  -20.1564    9.1656 LP  0  0  0  0  0  0  0  0  0  0  0  0  # atno 4315 bound_to 3832
   -4.4228  -22.2027   11.6498 LP  0  0  0  0  0  0  0  0  0  0  0  0  # atno 4318 bound_to 3762
   -4.2038  -23.3312   10.4900 LP  0  0  0  0  0  0  0  0  0  0  0  0  # atno 4319 bound_to 3762
   -5.4496   -5.1034    8.2022 LP  0  0  0  0  0  0  0  0  0  0  0  0  # atno 4320 bound_to 2467
   -3.8466   -4.8579    8.0103 LP  0  0  0  0  0  0  0  0  0  0  0  0  # atno 4321 bound_to 2467

> <Gold.Score>
     Score     S(PLP)   S(hbond)     S(cho)   S(metal)  DE(clash)   DE(tors)     intcor
     43.17     -34.67       2.99       0.00       0.00       0.00       0.58       0.67

> <Gold.PLP.Fitness>
43.1666

> <Gold.PLP.PLP>
-34.6745

> <Gold.PLP.part.hbond>
-2.0000

> <Gold.PLP.part.metal>
0.0000

> <Gold.PLP.part.buried>
-2.0162

> <Gold.PLP.part.nonpolar>
-31.8624

> <Gold.PLP.part.repulsive>
0.0660

> <Gold.PLP.ligand.clash>
0.0000

> <Gold.PLP.ligand.torsion>
0.5763

> <Gold.PLP.Chemscore.Hbond>
2.9913

> <Gold.PLP.Chemscore.CHOScore>
0.0000

> <Gold.PLP.Chemscore.Metal>
0.0000

> <Gold.Chemscore.Hbonds>
donor molecule, donor type, donor heavy atom, donor atom, acceptor molecule, acceptor atom, score
      L1  H     2    24       P1  1227  2.00
      P1  H  2305  2313       L1     8  0.99

> <Gold.PLP.Chemscore.Internal.Correction>
0.6709

