#       Name:                EN300-06567_i001
#       Creating user name   fsindt
#       Creation time:       Tue Feb 28 08:16:49 2023


#       File generated by GOLD software.
#

@<TRIPOS>MOLECULE
EN300-06567_i001|amine_7|mol2|4380|dock10
    25    25     1
SMALL
USER_CHARGES


@<TRIPOS>ATOM
      1 C1          -0.3607 -17.8702  11.8398 C.3            1 <1>                0.0000
      2 N2          -0.0027 -16.8003  10.8991 N.4            1 <1>                1.0000
      3 C3           0.1413 -15.5339  11.6295 C.3            1 <1>                0.0000
      4 C4           0.2019 -14.3920  10.6481 C.ar           1 <1>                0.0000
      5 C5          -0.6653 -13.3231  10.7785 C.ar           1 <1>                0.0000
      6 C6          -0.6122 -12.2753   9.8797 C.ar           1 <1>                0.0000
      7 C7           0.3129 -12.2959   8.8460 C.ar           1 <1>                0.0000
      8 O8           0.3675 -11.2661   7.9609 O.3            1 <1>                0.0000
      9 C9           0.8053 -11.5724   6.6355 C.3            1 <1>                0.0000
     10 C10          1.1823 -13.3693   8.7176 C.ar           1 <1>                0.0000
     11 C11          1.1285 -14.4122   9.6220 C.ar           1 <1>                0.0000
     12 H12         -1.3032 -17.6237  12.3289 H              1 <1>                0.0000
     13 H13         -0.4676 -18.8099  11.2979 H              1 <1>                0.0000
     14 H14          0.4228 -17.9709  12.5909 H              1 <1>                0.0000
     15 H15         -0.7129 -15.3979  12.2929 H              1 <1>                0.0000
     16 H16          1.0584 -15.5562  12.2181 H              1 <1>                0.0000
     17 H17         -1.3852 -13.3075  11.5834 H              1 <1>                0.0000
     18 H18         -1.2902 -11.4409   9.9816 H              1 <1>                0.0000
     19 H19          0.8025 -10.6641   6.0330 H              1 <1>                0.0000
     20 H20          1.8150 -11.9813   6.6718 H              1 <1>                0.0000
     21 H21          0.1321 -12.3054   6.1908 H              1 <1>                0.0000
     22 H22          1.9030 -13.3879   7.9135 H              1 <1>                0.0000
     23 H23          1.8054 -15.2480   9.5227 H              1 <1>                0.0000
     24 H24          0.8697 -17.0285  10.4465 H              1 <1>                0.0000
     25 H25         -0.7280 -16.7070  10.2040 H              1 <1>                0.0000
@<TRIPOS>BOND
    1    1    2 1     
    2    1   12 1     
    3    1   13 1     
    4    1   14 1     
    5    2    3 1     
    6    2   24 1     
    7    2   25 1     
    8    3    4 1     
    9    3   15 1     
   10    3   16 1     
   11    4    5 ar    
   12    4   11 ar    
   13    5    6 ar    
   14    5   17 1     
   15    6    7 ar    
   16    6   18 1     
   17    7    8 1     
   18    7   10 ar    
   19    8    9 1     
   20    9   19 1     
   21    9   20 1     
   22    9   21 1     
   23   10   11 ar    
   24   10   22 1     
   25   11   23 1     
@<TRIPOS>SUBSTRUCTURE
      1 ****           1
@<TRIPOS>SET
DONOR_HYDROGENS      STATIC     ATOMS    <user>   **** ""
2 24 25
ATOM$RED        STATIC     ATOMS    COLORGROUP SYSTEM
2 24 25
@<TRIPOS>COMMENT
> <Gold.Version>
2022.2.0

> <Gold.Id.Protein>
3pbl|protein|mol2

> <Gold.Protein.RotatedTorsions>
[ 1303 1298 1297 1294 ] final -134.29 input  179.99 | X-H torsion
[ 2461 2456 2455 2452 ] final -149.21 input   30.03 | X-H torsion
[ 2515 2510 2509 2506 ] final -177.71 input  -89.99 | X-H torsion
[ 3721 3712 3711 3710 ] final  -45.47 input -179.91 | X-H torsion
[ 3841 3832 3831 3830 ] final   47.03 input -179.91 | X-H torsion
[ 3767 3762 3761 3758 ] final  -47.60 input  -89.99 | X-H torsion
[ 2472 2467 2466 2463 ] final -151.39 input  -89.97 | X-H torsion

> <Gold.Protein.ActiveResidues>
 VAL82   VAL86   LEU89   PHE106  VAL107  ASP110  VAL111  MET112  CYS114  THR115 
 CYS181  SER182  ILE183  PHE188  VAL189  ILE190  SER192  SER193  SER196  TRP342 
 PHE345  PHE346  HIS349  VAL350  TYR365  THR369  GLY372  TYR373 

> <Gold.Protein.RotatedAtoms>
    4.4228   -8.4907    4.2315 H   0  0  0  0  0  0  0  0  0  0  0  0  # atno 1303 bound_to 1298
    0.9652   -9.2868    8.3014 H   0  0  0  0  0  0  0  0  0  0  0  0  # atno 2461 bound_to 2456
   -4.9988   -5.4579    9.3211 H   0  0  0  0  0  0  0  0  0  0  0  0  # atno 2472 bound_to 2467
    2.3393   -9.0603    5.8173 H   0  0  0  0  0  0  0  0  0  0  0  0  # atno 2515 bound_to 2510
   -2.6975  -17.5178   14.7019 H   0  0  0  0  0  0  0  0  0  0  0  0  # atno 3721 bound_to 3712
   -5.5041  -22.1664   10.6407 H   0  0  0  0  0  0  0  0  0  0  0  0  # atno 3767 bound_to 3762
    2.2933  -20.8952    9.5796 H   0  0  0  0  0  0  0  0  0  0  0  0  # atno 3841 bound_to 3832
    4.6029   -9.9578    4.9254 LP  0  0  0  0  0  0  0  0  0  0  0  0  # atno 4297 bound_to 1298
    3.3364   -9.6731    3.9347 LP  0  0  0  0  0  0  0  0  0  0  0  0  # atno 4298 bound_to 1298
    2.1407   -8.3062    7.7322 LP  0  0  0  0  0  0  0  0  0  0  0  0  # atno 4299 bound_to 2456
    0.6318   -8.2154    7.1147 LP  0  0  0  0  0  0  0  0  0  0  0  0  # atno 4300 bound_to 2456
    2.1385   -7.4749    5.4826 LP  0  0  0  0  0  0  0  0  0  0  0  0  # atno 4301 bound_to 2510
    2.8189   -8.4636    4.3751 LP  0  0  0  0  0  0  0  0  0  0  0  0  # atno 4302 bound_to 2510
   -3.5669  -16.5774   13.7336 LP  0  0  0  0  0  0  0  0  0  0  0  0  # atno 4306 bound_to 3712
   -2.8465  -17.9243   13.1558 LP  0  0  0  0  0  0  0  0  0  0  0  0  # atno 4307 bound_to 3712
    1.5504  -19.7648    8.7157 LP  0  0  0  0  0  0  0  0  0  0  0  0  # atno 4314 bound_to 3832
    3.0297  -20.3034    8.2820 LP  0  0  0  0  0  0  0  0  0  0  0  0  # atno 4315 bound_to 3832
   -4.2203  -22.3839   11.6263 LP  0  0  0  0  0  0  0  0  0  0  0  0  # atno 4318 bound_to 3762
   -4.4032  -23.3246   10.3040 LP  0  0  0  0  0  0  0  0  0  0  0  0  # atno 4319 bound_to 3762
   -5.0824   -4.9124    7.7843 LP  0  0  0  0  0  0  0  0  0  0  0  0  # atno 4320 bound_to 2467
   -3.6358   -5.0234    8.5339 LP  0  0  0  0  0  0  0  0  0  0  0  0  # atno 4321 bound_to 2467

> <Gold.Score>
     Score     S(PLP)   S(hbond)     S(cho)   S(metal)  DE(clash)   DE(tors)     intcor
     42.55     -33.82       2.99       0.00       0.00       0.00       0.45       0.67

> <Gold.PLP.Fitness>
42.5543

> <Gold.PLP.PLP>
-33.8158

> <Gold.PLP.part.hbond>
-1.9713

> <Gold.PLP.part.metal>
0.0000

> <Gold.PLP.part.buried>
-3.6709

> <Gold.PLP.part.nonpolar>
-28.6817

> <Gold.PLP.part.repulsive>
0.0000

> <Gold.PLP.ligand.clash>
0.0000

> <Gold.PLP.ligand.torsion>
0.4542

> <Gold.PLP.Chemscore.Hbond>
2.9920

> <Gold.PLP.Chemscore.CHOScore>
0.0000

> <Gold.PLP.Chemscore.Metal>
0.0000

> <Gold.Chemscore.Hbonds>
donor molecule, donor type, donor heavy atom, donor atom, acceptor molecule, acceptor atom, score
      L1  H     2    24       P1  1227  2.00
      P1  H  2456  2461       L1     8  0.99

> <Gold.PLP.Chemscore.Internal.Correction>
0.6709

