#       Name:                EN300-06567_i001
#       Creating user name   fsindt
#       Creation time:       Tue Feb 28 08:16:49 2023


#       File generated by GOLD software.
#

@<TRIPOS>MOLECULE
EN300-06567_i001|amine_7|mol2|4380|dock9
    25    25     1
SMALL
USER_CHARGES


@<TRIPOS>ATOM
      1 C1           0.7968 -15.5360   6.8274 C.3            1 <1>                0.0000
      2 N2           1.0905 -15.6170   8.2644 N.4            1 <1>                1.0000
      3 C3           1.7011 -14.3579   8.7112 C.3            1 <1>                0.0000
      4 C4           0.6472 -13.4844   9.3415 C.ar           1 <1>                0.0000
      5 C5           0.0394 -13.8773  10.5196 C.ar           1 <1>                0.0000
      6 C6          -0.9275 -13.0786  11.0992 C.ar           1 <1>                0.0000
      7 C7          -1.2880 -11.8812  10.4984 C.ar           1 <1>                0.0000
      8 O8          -2.2385 -11.0936  11.0668 O.3            1 <1>                0.0000
      9 C9          -3.0199 -10.2825  10.1873 C.3            1 <1>                0.0000
     10 C10         -0.6763 -11.4891   9.3166 C.ar           1 <1>                0.0000
     11 C11          0.2936 -12.2889   8.7438 C.ar           1 <1>                0.0000
     12 H12          1.7218 -15.3652   6.2765 H              1 <1>                0.0000
     13 H13          0.3438 -16.4704   6.4959 H              1 <1>                0.0000
     14 H14          0.1070 -14.7123   6.6434 H              1 <1>                0.0000
     15 H15          2.4808 -14.5714   9.4422 H              1 <1>                0.0000
     16 H16          2.1367 -13.8417   7.8557 H              1 <1>                0.0000
     17 H17          0.3204 -14.8095  10.9870 H              1 <1>                0.0000
     18 H18         -1.4024 -13.3863  12.0191 H              1 <1>                0.0000
     19 H19         -3.7389  -9.7051  10.7684 H              1 <1>                0.0000
     20 H20         -2.3650  -9.6036   9.6413 H              1 <1>                0.0000
     21 H21         -3.5519 -10.9204   9.4815 H              1 <1>                0.0000
     22 H22         -0.9555 -10.5576   8.8467 H              1 <1>                0.0000
     23 H23          0.7703 -11.9838   7.8239 H              1 <1>                0.0000
     24 H24          0.2343 -15.7751   8.7743 H              1 <1>                0.0000
     25 H25          1.7291 -16.3794   8.4347 H              1 <1>                0.0000
@<TRIPOS>BOND
    1    1    2 1     
    2    1   12 1     
    3    1   13 1     
    4    1   14 1     
    5    2    3 1     
    6    2   24 1     
    7    2   25 1     
    8    3    4 1     
    9    3   15 1     
   10    3   16 1     
   11    4    5 ar    
   12    4   11 ar    
   13    5    6 ar    
   14    5   17 1     
   15    6    7 ar    
   16    6   18 1     
   17    7    8 1     
   18    7   10 ar    
   19    8    9 1     
   20    9   19 1     
   21    9   20 1     
   22    9   21 1     
   23   10   11 ar    
   24   10   22 1     
   25   11   23 1     
@<TRIPOS>SUBSTRUCTURE
      1 ****           1
@<TRIPOS>SET
DONOR_HYDROGENS      STATIC     ATOMS    <user>   **** ""
2 24 25
ATOM$RED        STATIC     ATOMS    COLORGROUP SYSTEM
2 24 25
@<TRIPOS>COMMENT
> <Gold.Version>
2022.2.0

> <Gold.Id.Protein>
3pbl|protein|mol2

> <Gold.Protein.RotatedTorsions>
[ 1303 1298 1297 1294 ] final   -9.31 input  179.99 | X-H torsion
[ 2461 2456 2455 2452 ] final -126.28 input   30.03 | X-H torsion
[ 2515 2510 2509 2506 ] final  -86.46 input  -89.99 | X-H torsion
[ 3721 3712 3711 3710 ] final   28.61 input -179.91 | X-H torsion
[ 3841 3832 3831 3830 ] final -143.21 input -179.91 | X-H torsion
[ 3767 3762 3761 3758 ] final  -89.72 input  -89.99 | X-H torsion
[ 2472 2467 2466 2463 ] final   -8.39 input  -89.97 | X-H torsion

> <Gold.Protein.ActiveResidues>
 VAL82   VAL86   LEU89   PHE106  VAL107  ASP110  VAL111  MET112  CYS114  THR115 
 CYS181  SER182  ILE183  PHE188  VAL189  ILE190  SER192  SER193  SER196  TRP342 
 PHE345  PHE346  HIS349  VAL350  TYR365  THR369  GLY372  TYR373 

> <Gold.Protein.RotatedAtoms>
    3.3482   -9.7451    3.9716 H   0  0  0  0  0  0  0  0  0  0  0  0  # atno 1303 bound_to 1298
    0.6478   -9.2123    8.1162 H   0  0  0  0  0  0  0  0  0  0  0  0  # atno 2461 bound_to 2456
   -3.7289   -4.9097    8.1878 H   0  0  0  0  0  0  0  0  0  0  0  0  # atno 2472 bound_to 2467
    2.8269   -8.8876    4.5732 H   0  0  0  0  0  0  0  0  0  0  0  0  # atno 2515 bound_to 2510
   -2.4802  -18.0338   13.8213 H   0  0  0  0  0  0  0  0  0  0  0  0  # atno 3721 bound_to 3712
   -5.2279  -21.9204   11.2086 H   0  0  0  0  0  0  0  0  0  0  0  0  # atno 3767 bound_to 3762
    2.5397  -19.7023    8.3590 H   0  0  0  0  0  0  0  0  0  0  0  0  # atno 3841 bound_to 3832
    4.3586   -8.4797    4.1820 LP  0  0  0  0  0  0  0  0  0  0  0  0  # atno 4297 bound_to 1298
    4.6556   -9.8963    4.9381 LP  0  0  0  0  0  0  0  0  0  0  0  0  # atno 4298 bound_to 1298
    2.1451   -8.5706    7.9978 LP  0  0  0  0  0  0  0  0  0  0  0  0  # atno 4299 bound_to 2456
    0.9447   -8.0255    7.0342 LP  0  0  0  0  0  0  0  0  0  0  0  0  # atno 4300 bound_to 2456
    2.1617   -8.6964    6.0519 LP  0  0  0  0  0  0  0  0  0  0  0  0  # atno 4301 bound_to 2510
    2.3079   -7.4149    5.0504 LP  0  0  0  0  0  0  0  0  0  0  0  0  # atno 4302 bound_to 2510
   -3.2434  -16.9819   14.7642 LP  0  0  0  0  0  0  0  0  0  0  0  0  # atno 4306 bound_to 3712
   -3.4208  -16.9241   13.1419 LP  0  0  0  0  0  0  0  0  0  0  0  0  # atno 4307 bound_to 3712
    2.8666  -21.0932    9.0902 LP  0  0  0  0  0  0  0  0  0  0  0  0  # atno 4314 bound_to 3832
    1.4289  -20.3529    9.3176 LP  0  0  0  0  0  0  0  0  0  0  0  0  # atno 4315 bound_to 3832
   -3.9201  -22.8945   11.2971 LP  0  0  0  0  0  0  0  0  0  0  0  0  # atno 4318 bound_to 3762
   -4.9795  -23.0599   10.0654 LP  0  0  0  0  0  0  0  0  0  0  0  0  # atno 4319 bound_to 3762
   -4.6387   -5.4562    9.4288 LP  0  0  0  0  0  0  0  0  0  0  0  0  # atno 4320 bound_to 2467
   -5.3492   -5.0275    8.0224 LP  0  0  0  0  0  0  0  0  0  0  0  0  # atno 4321 bound_to 2467

> <Gold.Score>
     Score     S(PLP)   S(hbond)     S(cho)   S(metal)  DE(clash)   DE(tors)     intcor
     43.48     -38.16       2.00       0.00       0.00       0.00       0.67       0.67

> <Gold.PLP.Fitness>
43.4773

> <Gold.PLP.PLP>
-38.1554

> <Gold.PLP.part.hbond>
-1.0000

> <Gold.PLP.part.metal>
0.0000

> <Gold.PLP.part.buried>
-3.9484

> <Gold.PLP.part.nonpolar>
-34.2907

> <Gold.PLP.part.repulsive>
0.0703

> <Gold.PLP.ligand.clash>
0.0000

> <Gold.PLP.ligand.torsion>
0.6745

> <Gold.PLP.Chemscore.Hbond>
2.0000

> <Gold.PLP.Chemscore.CHOScore>
0.0000

> <Gold.PLP.Chemscore.Metal>
0.0000

> <Gold.Chemscore.Hbonds>
donor molecule, donor type, donor heavy atom, donor atom, acceptor molecule, acceptor atom, score
      L1  H     2    25       P1  1227  2.00

> <Gold.PLP.Chemscore.Internal.Correction>
0.6709

