#       Name:                EN300-06567_i001
#       Creating user name   fsindt
#       Creation time:       Tue Feb 28 08:16:48 2023


#       File generated by GOLD software.
#

@<TRIPOS>MOLECULE
EN300-06567_i001|amine_7|mol2|4380|dock7
    25    25     1
SMALL
USER_CHARGES


@<TRIPOS>ATOM
      1 C1           1.8640 -16.2358  13.0200 C.3            1 <1>                0.0000
      2 N2           1.6258 -15.6735  11.6839 N.4            1 <1>                1.0000
      3 C3           0.1830 -15.4854  11.4819 C.3            1 <1>                0.0000
      4 C4          -0.0626 -14.1515  10.8252 C.ar           1 <1>                0.0000
      5 C5          -0.9500 -13.2558  11.3928 C.ar           1 <1>                0.0000
      6 C6          -1.1774 -12.0325  10.7926 C.ar           1 <1>                0.0000
      7 C7          -0.5140 -11.7028   9.6195 C.ar           1 <1>                0.0000
      8 O8          -0.7357 -10.4998   9.0274 O.3            1 <1>                0.0000
      9 C9          -1.9771  -9.8536   9.3161 C.3            1 <1>                0.0000
     10 C10          0.3762 -12.6030   9.0523 C.ar           1 <1>                0.0000
     11 C11          0.6039 -13.8229   9.6593 C.ar           1 <1>                0.0000
     12 H12          1.3568 -17.1970  13.1054 H              1 <1>                0.0000
     13 H13          2.9345 -16.3754  13.1699 H              1 <1>                0.0000
     14 H14          1.4771 -15.5525  13.7760 H              1 <1>                0.0000
     15 H15         -0.2012 -16.2809  10.8433 H              1 <1>                0.0000
     16 H16         -0.3257 -15.5153  12.4453 H              1 <1>                0.0000
     17 H17         -1.4661 -13.5130  12.3060 H              1 <1>                0.0000
     18 H18         -1.8711 -11.3336  11.2359 H              1 <1>                0.0000
     19 H19         -2.0260  -8.9052   8.7812 H              1 <1>                0.0000
     20 H20         -2.8015 -10.4924   8.9994 H              1 <1>                0.0000
     21 H21         -2.0506  -9.6704  10.3881 H              1 <1>                0.0000
     22 H22          0.8935 -12.3488   8.1390 H              1 <1>                0.0000
     23 H23          1.2971 -14.5239   9.2182 H              1 <1>                0.0000
     24 H24          2.0952 -14.7838  11.6050 H              1 <1>                0.0000
     25 H25          1.9838 -16.3060  10.9841 H              1 <1>                0.0000
@<TRIPOS>BOND
    1    1    2 1     
    2    1   12 1     
    3    1   13 1     
    4    1   14 1     
    5    2    3 1     
    6    2   24 1     
    7    2   25 1     
    8    3    4 1     
    9    3   15 1     
   10    3   16 1     
   11    4    5 ar    
   12    4   11 ar    
   13    5    6 ar    
   14    5   17 1     
   15    6    7 ar    
   16    6   18 1     
   17    7    8 1     
   18    7   10 ar    
   19    8    9 1     
   20    9   19 1     
   21    9   20 1     
   22    9   21 1     
   23   10   11 ar    
   24   10   22 1     
   25   11   23 1     
@<TRIPOS>SUBSTRUCTURE
      1 ****           1
@<TRIPOS>SET
DONOR_HYDROGENS      STATIC     ATOMS    <user>   **** ""
2 24 25
ATOM$RED        STATIC     ATOMS    COLORGROUP SYSTEM
2 24 25
@<TRIPOS>COMMENT
> <Gold.Version>
2022.2.0

> <Gold.Id.Protein>
3pbl|protein|mol2

> <Gold.Protein.RotatedTorsions>
[ 1303 1298 1297 1294 ] final -155.48 input  179.99 | X-H torsion
[ 2461 2456 2455 2452 ] final -127.62 input   30.03 | X-H torsion
[ 2515 2510 2509 2506 ] final   85.59 input  -89.99 | X-H torsion
[ 3721 3712 3711 3710 ] final   60.78 input -179.91 | X-H torsion
[ 3841 3832 3831 3830 ] final  173.93 input -179.91 | X-H torsion
[ 3767 3762 3761 3758 ] final  -28.41 input  -89.99 | X-H torsion
[ 2472 2467 2466 2463 ] final  148.98 input  -89.97 | X-H torsion

> <Gold.Protein.ActiveResidues>
 VAL82   VAL86   LEU89   PHE106  VAL107  ASP110  VAL111  MET112  CYS114  THR115 
 CYS181  SER182  ILE183  PHE188  VAL189  ILE190  SER192  SER193  SER196  TRP342 
 PHE345  PHE346  HIS349  VAL350  TYR365  THR369  GLY372  TYR373 

> <Gold.Protein.RotatedAtoms>
    4.6667   -8.6099    4.4473 H   0  0  0  0  0  0  0  0  0  0  0  0  # atno 1303 bound_to 1298
    0.6642   -9.2195    8.1291 H   0  0  0  0  0  0  0  0  0  0  0  0  # atno 2461 bound_to 2456
   -5.5085   -5.2413    8.5646 H   0  0  0  0  0  0  0  0  0  0  0  0  # atno 2472 bound_to 2467
    2.0532   -7.6816    5.7909 H   0  0  0  0  0  0  0  0  0  0  0  0  # atno 2515 bound_to 2510
   -2.5954  -17.9020   13.3744 H   0  0  0  0  0  0  0  0  0  0  0  0  # atno 3721 bound_to 3712
   -5.4947  -22.3704   10.4017 H   0  0  0  0  0  0  0  0  0  0  0  0  # atno 3767 bound_to 3762
    3.0068  -20.1204    8.4441 H   0  0  0  0  0  0  0  0  0  0  0  0  # atno 3841 bound_to 3832
    4.3434  -10.1651    4.8255 LP  0  0  0  0  0  0  0  0  0  0  0  0  # atno 4297 bound_to 1298
    3.3519   -9.3466    3.8188 LP  0  0  0  0  0  0  0  0  0  0  0  0  # atno 4298 bound_to 1298
    2.1488   -8.5546    7.9832 LP  0  0  0  0  0  0  0  0  0  0  0  0  # atno 4299 bound_to 2456
    0.9246   -8.0343    7.0360 LP  0  0  0  0  0  0  0  0  0  0  0  0  # atno 4300 bound_to 2456
    2.7415   -8.0907    4.3680 LP  0  0  0  0  0  0  0  0  0  0  0  0  # atno 4301 bound_to 2510
    2.5022   -9.2271    5.5161 LP  0  0  0  0  0  0  0  0  0  0  0  0  # atno 4302 bound_to 2510
   -2.9776  -17.4308   14.8609 LP  0  0  0  0  0  0  0  0  0  0  0  0  # atno 4306 bound_to 3712
   -3.5536  -16.6273   13.5612 LP  0  0  0  0  0  0  0  0  0  0  0  0  # atno 4307 bound_to 3712
    2.2815  -21.1161    9.4730 LP  0  0  0  0  0  0  0  0  0  0  0  0  # atno 4314 bound_to 3832
    1.4746  -19.8471    8.8364 LP  0  0  0  0  0  0  0  0  0  0  0  0  # atno 4315 bound_to 3832
   -4.4565  -22.1777   11.6475 LP  0  0  0  0  0  0  0  0  0  0  0  0  # atno 4318 bound_to 3762
   -4.1765  -23.3269   10.5217 LP  0  0  0  0  0  0  0  0  0  0  0  0  # atno 4319 bound_to 3762
   -4.1512   -4.8043    7.7688 LP  0  0  0  0  0  0  0  0  0  0  0  0  # atno 4320 bound_to 2467
   -4.0574   -5.3479    9.3058 LP  0  0  0  0  0  0  0  0  0  0  0  0  # atno 4321 bound_to 2467

> <Gold.Score>
     Score     S(PLP)   S(hbond)     S(cho)   S(metal)  DE(clash)   DE(tors)     intcor
     44.78     -36.49       3.00       0.00       0.00       0.00       0.69       0.67

> <Gold.PLP.Fitness>
44.7820

> <Gold.PLP.PLP>
-36.4887

> <Gold.PLP.part.hbond>
-2.0000

> <Gold.PLP.part.metal>
0.0000

> <Gold.PLP.part.buried>
-3.5219

> <Gold.PLP.part.nonpolar>
-31.5401

> <Gold.PLP.part.repulsive>
0.0125

> <Gold.PLP.ligand.clash>
0.0000

> <Gold.PLP.ligand.torsion>
0.6888

> <Gold.PLP.Chemscore.Hbond>
3.0000

> <Gold.PLP.Chemscore.CHOScore>
0.0000

> <Gold.PLP.Chemscore.Metal>
0.0000

> <Gold.Chemscore.Hbonds>
donor molecule, donor type, donor heavy atom, donor atom, acceptor molecule, acceptor atom, score
      L1  H     2    25       P1  1227  2.00
      P1  H  2456  2461       L1     8  1.00

> <Gold.PLP.Chemscore.Internal.Correction>
0.6709

