#       Name:                EN300-06567_i001
#       Creating user name   fsindt
#       Creation time:       Tue Feb 28 08:16:47 2023


#       File generated by GOLD software.
#

@<TRIPOS>MOLECULE
EN300-06567_i001|amine_7|mol2|4380|dock5
    25    25     1
SMALL
USER_CHARGES


@<TRIPOS>ATOM
      1 C1           1.6971 -16.2531  13.0487 C.3            1 <1>                0.0000
      2 N2           1.7631 -15.6576  11.7075 N.4            1 <1>                1.0000
      3 C3           0.4111 -15.2854  11.2698 C.3            1 <1>                0.0000
      4 C4           0.5021 -14.2146  10.2134 C.ar           1 <1>                0.0000
      5 C5           1.3093 -14.4035   9.1069 C.ar           1 <1>                0.0000
      6 C6           1.3949 -13.4232   8.1373 C.ar           1 <1>                0.0000
      7 C7           0.6695 -12.2485   8.2743 C.ar           1 <1>                0.0000
      8 O8           0.7516 -11.2829   7.3216 O.3            1 <1>                0.0000
      9 C9           1.1245 -11.6992   6.0064 C.3            1 <1>                0.0000
     10 C10         -0.1401 -12.0616   9.3852 C.ar           1 <1>                0.0000
     11 C11         -0.2261 -13.0471  10.3495 C.ar           1 <1>                0.0000
     12 H12          1.0666 -17.1420  13.0209 H              1 <1>                0.0000
     13 H13          2.7002 -16.5294  13.3734 H              1 <1>                0.0000
     14 H14          1.2752 -15.5302  13.7469 H              1 <1>                0.0000
     15 H15         -0.0912 -16.1605  10.8578 H              1 <1>                0.0000
     16 H16         -0.1555 -14.9085  12.1213 H              1 <1>                0.0000
     17 H17          1.8738 -15.3181   9.0006 H              1 <1>                0.0000
     18 H18          2.0260 -13.5709   7.2735 H              1 <1>                0.0000
     19 H19          1.1524 -10.8330   5.3454 H              1 <1>                0.0000
     20 H20          2.1099 -12.1640   6.0381 H              1 <1>                0.0000
     21 H21          0.3955 -12.4182   5.6326 H              1 <1>                0.0000
     22 H22         -0.7055 -11.1479   9.4944 H              1 <1>                0.0000
     23 H23         -0.8566 -12.9022  11.2143 H              1 <1>                0.0000
     24 H24          2.3467 -14.8349  11.7332 H              1 <1>                0.0000
     25 H25          2.1535 -16.3268  11.0611 H              1 <1>                0.0000
@<TRIPOS>BOND
    1    1    2 1     
    2    1   12 1     
    3    1   13 1     
    4    1   14 1     
    5    2    3 1     
    6    2   24 1     
    7    2   25 1     
    8    3    4 1     
    9    3   15 1     
   10    3   16 1     
   11    4    5 ar    
   12    4   11 ar    
   13    5    6 ar    
   14    5   17 1     
   15    6    7 ar    
   16    6   18 1     
   17    7    8 1     
   18    7   10 ar    
   19    8    9 1     
   20    9   19 1     
   21    9   20 1     
   22    9   21 1     
   23   10   11 ar    
   24   10   22 1     
   25   11   23 1     
@<TRIPOS>SUBSTRUCTURE
      1 ****           1
@<TRIPOS>SET
DONOR_HYDROGENS      STATIC     ATOMS    <user>   **** ""
2 24 25
ATOM$RED        STATIC     ATOMS    COLORGROUP SYSTEM
2 24 25
@<TRIPOS>COMMENT
> <Gold.Version>
2022.2.0

> <Gold.Id.Protein>
3pbl|protein|mol2

> <Gold.Protein.RotatedTorsions>
[ 1303 1298 1297 1294 ] final -130.45 input  179.99 | X-H torsion
[ 2461 2456 2455 2452 ] final -142.36 input   30.03 | X-H torsion
[ 2515 2510 2509 2506 ] final   31.90 input  -89.99 | X-H torsion
[ 3721 3712 3711 3710 ] final   27.12 input -179.91 | X-H torsion
[ 3841 3832 3831 3830 ] final -144.11 input -179.91 | X-H torsion
[ 3767 3762 3761 3758 ] final  -63.52 input  -89.99 | X-H torsion
[ 2472 2467 2466 2463 ] final -107.22 input  -89.97 | X-H torsion

> <Gold.Protein.ActiveResidues>
 VAL82   VAL86   LEU89   PHE106  VAL107  ASP110  VAL111  MET112  CYS114  THR115 
 CYS181  SER182  ILE183  PHE188  VAL189  ILE190  SER192  SER193  SER196  TRP342 
 PHE345  PHE346  HIS349  VAL350  TYR365  THR369  GLY372  TYR373 

> <Gold.Protein.RotatedAtoms>
    4.3731   -8.4817    4.1935 H   0  0  0  0  0  0  0  0  0  0  0  0  # atno 1303 bound_to 1298
    0.8632   -9.2756    8.2547 H   0  0  0  0  0  0  0  0  0  0  0  0  # atno 2461 bound_to 2456
   -4.2963   -5.4103    9.4036 H   0  0  0  0  0  0  0  0  0  0  0  0  # atno 2472 bound_to 2467
    2.3192   -7.4188    5.0261 H   0  0  0  0  0  0  0  0  0  0  0  0  # atno 2515 bound_to 2510
   -2.4779  -18.0343   13.8437 H   0  0  0  0  0  0  0  0  0  0  0  0  # atno 3721 bound_to 3712
   -5.4447  -22.0350   10.8585 H   0  0  0  0  0  0  0  0  0  0  0  0  # atno 3767 bound_to 3762
    2.5517  -19.7086    8.3572 H   0  0  0  0  0  0  0  0  0  0  0  0  # atno 3841 bound_to 3832
    4.6439   -9.9108    4.9356 LP  0  0  0  0  0  0  0  0  0  0  0  0  # atno 4297 bound_to 1298
    3.3451   -9.7291    3.9625 LP  0  0  0  0  0  0  0  0  0  0  0  0  # atno 4298 bound_to 1298
    2.1573   -8.3821    7.8138 LP  0  0  0  0  0  0  0  0  0  0  0  0  # atno 4299 bound_to 2456
    0.7171   -8.1506    7.0798 LP  0  0  0  0  0  0  0  0  0  0  0  0  # atno 4300 bound_to 2456
    2.8244   -8.9088    4.5897 LP  0  0  0  0  0  0  0  0  0  0  0  0  # atno 4301 bound_to 2510
    2.1533   -8.6720    6.0595 LP  0  0  0  0  0  0  0  0  0  0  0  0  # atno 4302 bound_to 2510
   -3.2552  -16.9632   14.7528 LP  0  0  0  0  0  0  0  0  0  0  0  0  # atno 4306 bound_to 3712
   -3.4117  -16.9422   13.1275 LP  0  0  0  0  0  0  0  0  0  0  0  0  # atno 4307 bound_to 3712
    2.8568  -21.0980    9.1005 LP  0  0  0  0  0  0  0  0  0  0  0  0  # atno 4314 bound_to 3832
    1.4250  -20.3410    9.3093 LP  0  0  0  0  0  0  0  0  0  0  0  0  # atno 4315 bound_to 3832
   -4.0647  -22.5765   11.5434 LP  0  0  0  0  0  0  0  0  0  0  0  0  # atno 4318 bound_to 3762
   -4.6183  -23.2634   10.1692 LP  0  0  0  0  0  0  0  0  0  0  0  0  # atno 4319 bound_to 3762
   -5.4865   -5.1487    8.3166 LP  0  0  0  0  0  0  0  0  0  0  0  0  # atno 4320 bound_to 2467
   -3.9341   -4.8346    7.9191 LP  0  0  0  0  0  0  0  0  0  0  0  0  # atno 4321 bound_to 2467

> <Gold.Score>
     Score     S(PLP)   S(hbond)     S(cho)   S(metal)  DE(clash)   DE(tors)     intcor
     43.94     -36.84       2.49       0.00       0.00       0.00       0.52       0.67

> <Gold.PLP.Fitness>
43.9430

> <Gold.PLP.PLP>
-36.8406

> <Gold.PLP.part.hbond>
-2.0000

> <Gold.PLP.part.metal>
0.0000

> <Gold.PLP.part.buried>
-4.1010

> <Gold.PLP.part.nonpolar>
-30.8952

> <Gold.PLP.part.repulsive>
0.0086

> <Gold.PLP.ligand.clash>
0.0000

> <Gold.PLP.ligand.torsion>
0.5221

> <Gold.PLP.Chemscore.Hbond>
2.4919

> <Gold.PLP.Chemscore.CHOScore>
0.0000

> <Gold.PLP.Chemscore.Metal>
0.0000

> <Gold.Chemscore.Hbonds>
donor molecule, donor type, donor heavy atom, donor atom, acceptor molecule, acceptor atom, score
      L1  H     2    25       P1  1227  2.00
      P1  H  2456  2461       L1     8  0.49

> <Gold.PLP.Chemscore.Internal.Correction>
0.6709

