#       Name:                plp ligand
#       Creating user name   fsindt
#       Creation time:       Tue Feb 28 08:16:45 2023


#       File generated by GOLD software.
#

@<TRIPOS>MOLECULE
plp ligand
    25    25     1
SMALL
USER_CHARGES


@<TRIPOS>ATOM
      1 C1           4.0601  -0.1318   0.3588 NONPOLAR       1 <1>                0.0000
      2 N2           2.6146  -0.0277   0.5987 DONOR          1 <1>                1.0000
      3 C3           1.9160   0.1360  -0.6831 NONPOLAR       1 <1>                0.0000
      4 C4           0.4331   0.2427  -0.4370 NONPOLAR       1 <1>                0.0000
      5 C5          -0.1444   1.4814  -0.2277 NONPOLAR       1 <1>                0.0000
      6 C6          -1.5035   1.5819  -0.0013 NONPOLAR       1 <1>                0.0000
      7 C7          -2.2891   0.4385   0.0154 NONPOLAR       1 <1>                0.0000
      8 O8          -3.6264   0.5348   0.2374 ACCEPTOR       1 <1>                0.0000
      9 C9          -4.3728  -0.6838   0.2407 NONPOLAR       1 <1>                0.0000
     10 C10         -1.7073  -0.8031  -0.1954 NONPOLAR       1 <1>                0.0000
     11 C11         -0.3486  -0.8977  -0.4264 NONPOLAR       1 <1>                0.0000
     12 H12          4.4128   0.7743  -0.1341                1 <1>                0.0000
     13 H13          4.5785  -0.2532   1.3099                1 <1>                0.0000
     14 H14          4.2617  -0.9935  -0.2776                1 <1>                0.0000
     15 H15          2.2686   1.0420  -1.1760                1 <1>                0.0000
     16 H16          2.1176  -0.7257  -1.3194                1 <1>                0.0000
     17 H17          0.4676   2.3712  -0.2408                1 <1>                0.0000
     18 H18         -1.9540   2.5496   0.1628                1 <1>                0.0000
     19 H19         -5.4240  -0.4654   0.4287                1 <1>                0.0000
     20 H20         -4.2711  -1.1748  -0.7271                1 <1>                0.0000
     21 H21         -3.9926  -1.3406   1.0231                1 <1>                0.0000
     22 H22         -2.3167  -1.6947  -0.1825                1 <1>                0.0000
     23 H23          0.1047  -1.8641  -0.5909                1 <1>                0.0000
     24 H24          2.2882  -0.8664   1.0549                1 <1>                0.0000
     25 H25          2.4280   0.7700   1.1877                1 <1>                0.0000
@<TRIPOS>BOND
    1    1    2 1     
    2    1   12 1     
    3    1   13 1     
    4    1   14 1     
    5    2    3 1     
    6    2   24 1     
    7    2   25 1     
    8    3    4 1     
    9    3   15 1     
   10    3   16 1     
   11    4    5 ar    
   12    4   11 ar    
   13    5    6 ar    
   14    5   17 1     
   15    6    7 ar    
   16    6   18 1     
   17    7    8 1     
   18    7   10 ar    
   19    8    9 1     
   20    9   19 1     
   21    9   20 1     
   22    9   21 1     
   23   10   11 ar    
   24   10   22 1     
   25   11   23 1     
@<TRIPOS>SUBSTRUCTURE
      1 ****           1
@<TRIPOS>SET
DONOR_HYDROGENS      STATIC     ATOMS    <user>   **** ""
2 24 25
ATOM$RED        STATIC     ATOMS    COLORGROUP SYSTEM
2 24 25
