#       Name:                EN300-18555_i001
#       Creating user name   fsindt
#       Creation time:       Tue Feb 28 04:06:44 2023


#       File generated by GOLD software.
#

@<TRIPOS>MOLECULE
EN300-18555_i001|acide_1|mol2|2798|dock10
    31    32     1
SMALL
USER_CHARGES


@<TRIPOS>ATOM
      1 C1           0.8146 -20.1503  11.6946 C.3            1 <1>                0.0000
      2 C2           0.0749 -18.8828  12.0373 C.2            1 <1>                0.0000
      3 O3          -1.0002 -18.9403  12.5956 O.2            1 <1>                0.0000
      4 N4           0.6081 -17.6855  11.7233 N.am           1 <1>                0.0000
      5 C5          -0.1110 -16.4534  12.0565 C.3            1 <1>                0.0000
      6 C6           0.5962 -15.2599  11.4112 C.3            1 <1>                0.0000
      7 C7           0.3145 -15.2493   9.9309 C.2            1 <1>                0.0000
      8 C8          -0.2028 -16.2561   9.2092 C.2            1 <1>                0.0000
      9 N9          -0.3153 -15.8806   7.8982 N.pl3          1 <1>                0.0000
     10 C10          0.1383 -14.5902   7.7402 C.ar           1 <1>                0.0000
     11 C11          0.2449 -13.7401   6.6446 C.ar           1 <1>                0.0000
     12 C12          0.7528 -12.4700   6.8108 C.ar           1 <1>                0.0000
     13 C13          1.1602 -12.0287   8.0620 C.ar           1 <1>                0.0000
     14 C14          1.0648 -12.8477   9.1519 C.ar           1 <1>                0.0000
     15 C15          0.5474 -14.1361   9.0075 C.ar           1 <1>                0.0000
     16 C16         -0.1347 -16.2744  13.5526 C.2            1 <1>                0.0000
     17 O17         -0.7035 -17.0924  14.2554 O.co2          1 <1>                0.0000
     18 O18          0.4148 -15.3117  14.0602 O.co2          1 <1>               -1.0000
     19 H19          0.2323 -21.0111  12.0234 H              1 <1>                0.0000
     20 H20          0.9644 -20.2035  10.6163 H              1 <1>                0.0000
     21 H21          1.7823 -20.1532  12.1964 H              1 <1>                0.0000
     22 H22         -1.1326 -16.5164  11.6818 H              1 <1>                0.0000
     23 H23          0.2294 -14.3355  11.8575 H              1 <1>                0.0000
     24 H24          1.6705 -15.3416  11.5760 H              1 <1>                0.0000
     25 H25         -0.4876 -17.2198   9.6047 H              1 <1>                0.0000
     26 H26         -0.0691 -14.0743   5.6668 H              1 <1>                0.0000
     27 H27          0.8351 -11.8114   5.9588 H              1 <1>                0.0000
     28 H28          1.5561 -11.0303   8.1751 H              1 <1>                0.0000
     29 H29          1.3842 -12.4975  10.1224 H              1 <1>                0.0000
     30 H30          1.4680 -17.6396  11.2768 H              1 <1>                0.0000
     31 H31         -0.6629 -16.4402   7.1862 H              1 <1>                0.0000
@<TRIPOS>BOND
    1    1    2 1     
    2    1   19 1     
    3    1   20 1     
    4    1   21 1     
    5    2    3 2     
    6    2    4 am    
    7    4    5 1     
    8    4   30 1     
    9    5    6 1     
   10    5   16 1     
   11    5   22 1     
   12    6    7 1     
   13    6   23 1     
   14    6   24 1     
   15    7    8 2     
   16    7   15 1     
   17    8    9 1     
   18    8   25 1     
   19    9   10 1     
   20    9   31 1     
   21   10   11 ar    
   22   10   15 ar    
   23   11   12 ar    
   24   11   26 1     
   25   12   13 ar    
   26   12   27 1     
   27   13   14 ar    
   28   13   28 1     
   29   14   15 ar    
   30   14   29 1     
   31   16   17 ar    
   32   16   18 ar    
@<TRIPOS>SUBSTRUCTURE
      1 ****           1
@<TRIPOS>SET
DONOR_HYDROGENS      STATIC     ATOMS    <user>   **** ""
2 30 31
ATOM$RED        STATIC     ATOMS    COLORGROUP SYSTEM
2 30 31
@<TRIPOS>COMMENT
> <Gold.Version>
2022.2.0

> <Gold.Id.Protein>
3pbl|protein|mol2

> <Gold.Protein.RotatedTorsions>
[ 1303 1298 1297 1294 ] final   59.39 input  179.99 | X-H torsion
[ 2461 2456 2455 2452 ] final -166.83 input   30.03 | X-H torsion
[ 2515 2510 2509 2506 ] final   -5.33 input  -89.99 | X-H torsion
[ 3721 3712 3711 3710 ] final   68.20 input -179.91 | X-H torsion
[ 3841 3832 3831 3830 ] final    2.20 input -179.91 | X-H torsion
[ 3767 3762 3761 3758 ] final  135.13 input  -89.99 | X-H torsion
[ 2472 2467 2466 2463 ] final  -15.14 input  -89.97 | X-H torsion

> <Gold.Protein.ActiveResidues>
 VAL82   VAL86   LEU89   PHE106  VAL107  ASP110  VAL111  MET112  CYS114  THR115 
 CYS181  SER182  ILE183  PHE188  VAL189  ILE190  SER192  SER193  SER196  TRP342 
 PHE345  PHE346  HIS349  VAL350  TYR365  THR369  GLY372  TYR373 

> <Gold.Protein.RotatedAtoms>
    3.9997  -10.2704    4.6282 H   0  0  0  0  0  0  0  0  0  0  0  0  # atno 1303 bound_to 1298
    1.2421   -9.2706    8.3819 H   0  0  0  0  0  0  0  0  0  0  0  0  # atno 2461 bound_to 2456
   -3.6866   -4.9403    8.2857 H   0  0  0  0  0  0  0  0  0  0  0  0  # atno 2472 bound_to 2467
    2.5766   -7.6878    4.5535 H   0  0  0  0  0  0  0  0  0  0  0  0  # atno 2515 bound_to 2510
   -2.6374  -17.8419   13.2898 H   0  0  0  0  0  0  0  0  0  0  0  0  # atno 3721 bound_to 3712
   -3.9095  -23.0567   11.1088 H   0  0  0  0  0  0  0  0  0  0  0  0  # atno 3767 bound_to 3762
    1.7562  -20.5116    9.5688 H   0  0  0  0  0  0  0  0  0  0  0  0  # atno 3841 bound_to 3832
    3.5040   -8.9677    3.7775 LP  0  0  0  0  0  0  0  0  0  0  0  0  # atno 4297 bound_to 1298
    4.8585   -8.8828    4.6858 LP  0  0  0  0  0  0  0  0  0  0  0  0  # atno 4298 bound_to 1298
    2.0405   -8.1330    7.5241 LP  0  0  0  0  0  0  0  0  0  0  0  0  # atno 4299 bound_to 2456
    0.4552   -8.4048    7.2423 LP  0  0  0  0  0  0  0  0  0  0  0  0  # atno 4300 bound_to 2456
    2.6865   -9.2293    5.0803 LP  0  0  0  0  0  0  0  0  0  0  0  0  # atno 4301 bound_to 2510
    2.0335   -8.0823    6.0418 LP  0  0  0  0  0  0  0  0  0  0  0  0  # atno 4302 bound_to 2510
   -2.9182  -17.5376   14.8411 LP  0  0  0  0  0  0  0  0  0  0  0  0  # atno 4306 bound_to 3712
   -3.5645  -16.5900   13.6787 LP  0  0  0  0  0  0  0  0  0  0  0  0  # atno 4307 bound_to 3712
    2.1116  -19.6478    8.2635 LP  0  0  0  0  0  0  0  0  0  0  0  0  # atno 4314 bound_to 3832
    3.0891  -20.8635    8.7467 LP  0  0  0  0  0  0  0  0  0  0  0  0  # atno 4315 bound_to 3832
   -5.1674  -22.8979   10.0797 LP  0  0  0  0  0  0  0  0  0  0  0  0  # atno 4318 bound_to 3762
   -5.0502  -21.9206   11.3827 LP  0  0  0  0  0  0  0  0  0  0  0  0  # atno 4319 bound_to 3762
   -4.7481   -5.4620    9.4115 LP  0  0  0  0  0  0  0  0  0  0  0  0  # atno 4320 bound_to 2467
   -5.2821   -4.9912    7.9419 LP  0  0  0  0  0  0  0  0  0  0  0  0  # atno 4321 bound_to 2467

> <Gold.Score>
     Score     S(PLP)   S(hbond)     S(cho)   S(metal)  DE(clash)   DE(tors)     intcor
     53.26     -45.03       2.98       0.00       0.00       0.00       0.37       0.05

> <Gold.PLP.Fitness>
53.2615

> <Gold.PLP.PLP>
-45.0259

> <Gold.PLP.part.hbond>
-4.0000

> <Gold.PLP.part.metal>
0.0000

> <Gold.PLP.part.buried>
-2.8531

> <Gold.PLP.part.nonpolar>
-39.7448

> <Gold.PLP.part.repulsive>
0.1039

> <Gold.PLP.ligand.clash>
0.0000

> <Gold.PLP.ligand.torsion>
0.3686

> <Gold.PLP.Chemscore.Hbond>
2.9750

> <Gold.PLP.Chemscore.CHOScore>
0.0000

> <Gold.PLP.Chemscore.Metal>
0.0000

> <Gold.Chemscore.Hbonds>
donor molecule, donor type, donor heavy atom, donor atom, acceptor molecule, acceptor atom, score
      L1  H     4    30       P1  1227  0.98
      P1  H  2305  2313       L1    18  1.00
      P1  H  3712  3721       L1     3  1.00

> <Gold.PLP.Chemscore.Internal.Correction>
0.0480

