#       Name:                EN300-18555_i001
#       Creating user name   fsindt
#       Creation time:       Tue Feb 28 04:06:37 2023


#       File generated by GOLD software.
#

@<TRIPOS>MOLECULE
EN300-18555_i001|acide_1|mol2|2798|dock2
    31    32     1
SMALL
USER_CHARGES


@<TRIPOS>ATOM
      1 C1          -0.5124 -10.1077  11.1169 C.3            1 <1>                0.0000
      2 C2          -0.6986 -11.4758  10.5132 C.2            1 <1>                0.0000
      3 O3          -1.7546 -12.0578  10.6440 O.2            1 <1>                0.0000
      4 N4           0.3084 -12.0527   9.8279 N.am           1 <1>                0.0000
      5 C5           0.1274 -13.3827   9.2410 C.3            1 <1>                0.0000
      6 C6           1.1247 -14.3577   9.8699 C.3            1 <1>                0.0000
      7 C7           0.6376 -14.7624  11.2373 C.2            1 <1>                0.0000
      8 C8          -0.5105 -14.3831  11.8206 C.2            1 <1>                0.0000
      9 N9          -0.6130 -14.9505  13.0615 N.pl3          1 <1>                0.0000
     10 C10          0.4947 -15.7284  13.3136 C.ar           1 <1>                0.0000
     11 C11          0.8912 -16.5085  14.3947 C.ar           1 <1>                0.0000
     12 C12          2.0889 -17.1880  14.3456 C.ar           1 <1>                0.0000
     13 C13          2.9060 -17.1023  13.2271 C.ar           1 <1>                0.0000
     14 C14          2.5362 -16.3411  12.1540 C.ar           1 <1>                0.0000
     15 C15          1.3240 -15.6494  12.1797 C.ar           1 <1>                0.0000
     16 C16          0.3634 -13.3121   7.7542 C.2            1 <1>                0.0000
     17 O17          0.7070 -12.2610   7.2409 O.co2          1 <1>                0.0000
     18 O18          0.2106 -14.3061   7.0649 O.co2          1 <1>               -1.0000
     19 H19         -1.4275  -9.8085  11.6282 H              1 <1>                0.0000
     20 H20          0.3105 -10.1345  11.8311 H              1 <1>                0.0000
     21 H21         -0.2858  -9.3902  10.3283 H              1 <1>                0.0000
     22 H22         -0.8884 -13.7288   9.4316 H              1 <1>                0.0000
     23 H23          1.2146 -15.2425   9.2397 H              1 <1>                0.0000
     24 H24          2.0979 -13.8749   9.9592 H              1 <1>                0.0000
     25 H25         -1.2444 -13.7272  11.3762 H              1 <1>                0.0000
     26 H26          0.2624 -16.5813  15.2698 H              1 <1>                0.0000
     27 H27          2.3951 -17.7930  15.1863 H              1 <1>                0.0000
     28 H28          3.8417 -17.6410  13.2047 H              1 <1>                0.0000
     29 H29          3.1774 -16.2789  11.2871 H              1 <1>                0.0000
     30 H30          1.1530 -11.5873   9.7233 H              1 <1>                0.0000
     31 H31         -1.3555 -14.8234  13.6727 H              1 <1>                0.0000
@<TRIPOS>BOND
    1    1    2 1     
    2    1   19 1     
    3    1   20 1     
    4    1   21 1     
    5    2    3 2     
    6    2    4 am    
    7    4    5 1     
    8    4   30 1     
    9    5    6 1     
   10    5   16 1     
   11    5   22 1     
   12    6    7 1     
   13    6   23 1     
   14    6   24 1     
   15    7    8 2     
   16    7   15 1     
   17    8    9 1     
   18    8   25 1     
   19    9   10 1     
   20    9   31 1     
   21   10   11 ar    
   22   10   15 ar    
   23   11   12 ar    
   24   11   26 1     
   25   12   13 ar    
   26   12   27 1     
   27   13   14 ar    
   28   13   28 1     
   29   14   15 ar    
   30   14   29 1     
   31   16   17 ar    
   32   16   18 ar    
@<TRIPOS>SUBSTRUCTURE
      1 ****           1
@<TRIPOS>SET
DONOR_HYDROGENS      STATIC     ATOMS    <user>   **** ""
2 30 31
ATOM$RED        STATIC     ATOMS    COLORGROUP SYSTEM
2 30 31
@<TRIPOS>COMMENT
> <Gold.Version>
2022.2.0

> <Gold.Id.Protein>
3pbl|protein|mol2

> <Gold.Protein.RotatedTorsions>
[ 1303 1298 1297 1294 ] final -139.41 input  179.99 | X-H torsion
[ 2461 2456 2455 2452 ] final  108.08 input   30.03 | X-H torsion
[ 2515 2510 2509 2506 ] final  -75.68 input  -89.99 | X-H torsion
[ 3721 3712 3711 3710 ] final  -56.07 input -179.91 | X-H torsion
[ 3841 3832 3831 3830 ] final  167.24 input -179.91 | X-H torsion
[ 3767 3762 3761 3758 ] final  -84.09 input  -89.99 | X-H torsion
[ 2472 2467 2466 2463 ] final   25.69 input  -89.97 | X-H torsion

> <Gold.Protein.ActiveResidues>
 VAL82   VAL86   LEU89   PHE106  VAL107  ASP110  VAL111  MET112  CYS114  THR115 
 CYS181  SER182  ILE183  PHE188  VAL189  ILE190  SER192  SER193  SER196  TRP342 
 PHE345  PHE346  HIS349  VAL350  TYR365  THR369  GLY372  TYR373 

> <Gold.Protein.RotatedAtoms>
    4.4868   -8.5089    4.2831 H   0  0  0  0  0  0  0  0  0  0  0  0  # atno 1303 bound_to 1298
    2.1578   -8.5033    7.9351 H   0  0  0  0  0  0  0  0  0  0  0  0  # atno 2461 bound_to 2456
   -4.1037   -4.8091    7.7944 H   0  0  0  0  0  0  0  0  0  0  0  0  # atno 2472 bound_to 2467
    2.8358   -8.7394    4.4766 H   0  0  0  0  0  0  0  0  0  0  0  0  # atno 2515 bound_to 2510
   -2.7713  -17.3823   14.7445 H   0  0  0  0  0  0  0  0  0  0  0  0  # atno 3721 bound_to 3712
   -5.2854  -21.9332   11.1372 H   0  0  0  0  0  0  0  0  0  0  0  0  # atno 3767 bound_to 3762
    3.0521  -20.1998    8.4871 H   0  0  0  0  0  0  0  0  0  0  0  0  # atno 3841 bound_to 3832
    4.5450  -10.0165    4.9079 LP  0  0  0  0  0  0  0  0  0  0  0  0  # atno 4297 bound_to 1298
    3.3302   -9.5963    3.9006 LP  0  0  0  0  0  0  0  0  0  0  0  0  # atno 4298 bound_to 1298
    0.8612   -8.0647    7.0442 LP  0  0  0  0  0  0  0  0  0  0  0  0  # atno 4299 bound_to 2456
    0.7191   -9.2401    8.1689 LP  0  0  0  0  0  0  0  0  0  0  0  0  # atno 4300 bound_to 2456
    2.2225   -8.8490    5.9858 LP  0  0  0  0  0  0  0  0  0  0  0  0  # atno 4301 bound_to 2510
    2.2383   -7.4105    5.2132 LP  0  0  0  0  0  0  0  0  0  0  0  0  # atno 4302 bound_to 2510
   -3.5540  -16.6262   13.5640 LP  0  0  0  0  0  0  0  0  0  0  0  0  # atno 4306 bound_to 3712
   -2.7742  -18.0318   13.2762 LP  0  0  0  0  0  0  0  0  0  0  0  0  # atno 4307 bound_to 3712
    2.1801  -21.0822    9.5054 LP  0  0  0  0  0  0  0  0  0  0  0  0  # atno 4314 bound_to 3832
    1.5236  -19.7893    8.7543 LP  0  0  0  0  0  0  0  0  0  0  0  0  # atno 4315 bound_to 3832
   -3.9380  -22.8287   11.3597 LP  0  0  0  0  0  0  0  0  0  0  0  0  # atno 4318 bound_to 3762
   -4.9041  -23.1129   10.0742 LP  0  0  0  0  0  0  0  0  0  0  0  0  # atno 4319 bound_to 3762
   -4.1031   -5.3620    9.3308 LP  0  0  0  0  0  0  0  0  0  0  0  0  # atno 4320 bound_to 2467
   -5.5101   -5.2223    8.5138 LP  0  0  0  0  0  0  0  0  0  0  0  0  # atno 4321 bound_to 2467

> <Gold.Score>
     Score     S(PLP)   S(hbond)     S(cho)   S(metal)  DE(clash)   DE(tors)     intcor
     50.01     -50.30       0.00       0.00       0.00       0.00       0.17       0.05

> <Gold.PLP.Fitness>
50.0054

> <Gold.PLP.PLP>
-50.2998

> <Gold.PLP.part.hbond>
0.0000

> <Gold.PLP.part.metal>
0.0000

> <Gold.PLP.part.buried>
-2.1674

> <Gold.PLP.part.nonpolar>
-49.2073

> <Gold.PLP.part.repulsive>
0.2189

> <Gold.PLP.ligand.clash>
0.0000

> <Gold.PLP.ligand.torsion>
0.1712

> <Gold.PLP.Chemscore.Hbond>
0.0000

> <Gold.PLP.Chemscore.CHOScore>
0.0000

> <Gold.PLP.Chemscore.Metal>
0.0000

> <Gold.PLP.Chemscore.Internal.Correction>
0.0480

