#       Name:                EN300-18555_i001
#       Creating user name   fsindt
#       Creation time:       Tue Feb 28 04:06:39 2023


#       File generated by GOLD software.
#

@<TRIPOS>MOLECULE
EN300-18555_i001|acide_1|mol2|2798|dock4
    31    32     1
SMALL
USER_CHARGES


@<TRIPOS>ATOM
      1 C1          -0.4100 -19.5510  10.5987 C.3            1 <1>                0.0000
      2 C2          -0.4830 -18.3098  11.4504 C.2            1 <1>                0.0000
      3 O3          -1.3279 -18.2170  12.3155 O.2            1 <1>                0.0000
      4 N4           0.3905 -17.3032  11.2507 N.am           1 <1>                0.0000
      5 C5           0.3196 -16.0967  12.0787 C.3            1 <1>                0.0000
      6 C6           1.3756 -15.0937  11.6100 C.3            1 <1>                0.0000
      7 C7           0.8593 -14.3452  10.4083 C.2            1 <1>                0.0000
      8 C8           1.2812 -14.4810   9.1411 C.2            1 <1>                0.0000
      9 N9           0.5799 -13.6375   8.3231 N.pl3          1 <1>                0.0000
     10 C10         -0.3335 -12.9202   9.0626 C.ar           1 <1>                0.0000
     11 C11         -1.2768 -11.9505   8.7397 C.ar           1 <1>                0.0000
     12 C12         -2.0656 -11.4065   9.7300 C.ar           1 <1>                0.0000
     13 C13         -1.9287 -11.8161  11.0489 C.ar           1 <1>                0.0000
     14 C14         -1.0078 -12.7670  11.3885 C.ar           1 <1>                0.0000
     15 C15         -0.2026 -13.3362  10.4003 C.ar           1 <1>                0.0000
     16 C16          0.5757 -16.4598  13.5187 C.2            1 <1>                0.0000
     17 O17          0.8400 -17.6114  13.8192 O.co2          1 <1>                0.0000
     18 O18          0.5187 -15.6018  14.3831 O.co2          1 <1>               -1.0000
     19 H19         -1.1903 -20.2479  10.9046 H              1 <1>                0.0000
     20 H20         -0.5527 -19.2824   9.5521 H              1 <1>                0.0000
     21 H21          0.5658 -20.0205  10.7236 H              1 <1>                0.0000
     22 H22         -0.6708 -15.6509  11.9870 H              1 <1>                0.0000
     23 H23          1.5888 -14.3885  12.4133 H              1 <1>                0.0000
     24 H24          2.2884 -15.6258  11.3419 H              1 <1>                0.0000
     25 H25          2.0590 -15.1557   8.8156 H              1 <1>                0.0000
     26 H26         -1.3907 -11.6248   7.7162 H              1 <1>                0.0000
     27 H27         -2.7973 -10.6534   9.4773 H              1 <1>                0.0000
     28 H28         -2.5547 -11.3796  11.8131 H              1 <1>                0.0000
     29 H29         -0.9066 -13.0806  12.4170 H              1 <1>                0.0000
     30 H30          1.0663 -17.3775  10.5588 H              1 <1>                0.0000
     31 H31          0.7075 -13.5569   7.3648 H              1 <1>                0.0000
@<TRIPOS>BOND
    1    1    2 1     
    2    1   19 1     
    3    1   20 1     
    4    1   21 1     
    5    2    3 2     
    6    2    4 am    
    7    4    5 1     
    8    4   30 1     
    9    5    6 1     
   10    5   16 1     
   11    5   22 1     
   12    6    7 1     
   13    6   23 1     
   14    6   24 1     
   15    7    8 2     
   16    7   15 1     
   17    8    9 1     
   18    8   25 1     
   19    9   10 1     
   20    9   31 1     
   21   10   11 ar    
   22   10   15 ar    
   23   11   12 ar    
   24   11   26 1     
   25   12   13 ar    
   26   12   27 1     
   27   13   14 ar    
   28   13   28 1     
   29   14   15 ar    
   30   14   29 1     
   31   16   17 ar    
   32   16   18 ar    
@<TRIPOS>SUBSTRUCTURE
      1 ****           1
@<TRIPOS>SET
DONOR_HYDROGENS      STATIC     ATOMS    <user>   **** ""
2 30 31
ATOM$RED        STATIC     ATOMS    COLORGROUP SYSTEM
2 30 31
@<TRIPOS>COMMENT
> <Gold.Version>
2022.2.0

> <Gold.Id.Protein>
3pbl|protein|mol2

> <Gold.Protein.RotatedTorsions>
[ 1303 1298 1297 1294 ] final -156.62 input  179.99 | X-H torsion
[ 2461 2456 2455 2452 ] final  122.49 input   30.03 | X-H torsion
[ 2515 2510 2509 2506 ] final -126.53 input  -89.99 | X-H torsion
[ 3721 3712 3711 3710 ] final   88.75 input -179.91 | X-H torsion
[ 3841 3832 3831 3830 ] final   89.36 input -179.91 | X-H torsion
[ 3767 3762 3761 3758 ] final  -95.84 input  -89.99 | X-H torsion
[ 2472 2467 2466 2463 ] final   78.08 input  -89.97 | X-H torsion

> <Gold.Protein.ActiveResidues>
 VAL82   VAL86   LEU89   PHE106  VAL107  ASP110  VAL111  MET112  CYS114  THR115 
 CYS181  SER182  ILE183  PHE188  VAL189  ILE190  SER192  SER193  SER196  TRP342 
 PHE345  PHE346  HIS349  VAL350  TYR365  THR369  GLY372  TYR373 

> <Gold.Protein.RotatedAtoms>
    4.6779   -8.6194    4.4588 H   0  0  0  0  0  0  0  0  0  0  0  0  # atno 1303 bound_to 1298
    2.1087   -8.6755    8.0899 H   0  0  0  0  0  0  0  0  0  0  0  0  # atno 2461 bound_to 2456
   -4.9298   -4.8709    7.7137 H   0  0  0  0  0  0  0  0  0  0  0  0  # atno 2472 bound_to 2467
    2.6800   -9.2335    5.0984 H   0  0  0  0  0  0  0  0  0  0  0  0  # atno 2515 bound_to 2510
   -2.7747  -17.6298   13.1118 H   0  0  0  0  0  0  0  0  0  0  0  0  # atno 3721 bound_to 3712
   -5.1597  -21.9143   11.2825 H   0  0  0  0  0  0  0  0  0  0  0  0  # atno 3767 bound_to 3762
    2.8355  -20.9241    9.2697 H   0  0  0  0  0  0  0  0  0  0  0  0  # atno 3841 bound_to 3832
    4.3283  -10.1734    4.8182 LP  0  0  0  0  0  0  0  0  0  0  0  0  # atno 4297 bound_to 1298
    3.3557   -9.3288    3.8146 LP  0  0  0  0  0  0  0  0  0  0  0  0  # atno 4298 bound_to 1298
    1.0800   -7.9757    7.0318 LP  0  0  0  0  0  0  0  0  0  0  0  0  # atno 4299 bound_to 2456
    0.5493   -9.1570    8.0266 LP  0  0  0  0  0  0  0  0  0  0  0  0  # atno 4300 bound_to 2456
    2.0323   -8.0637    6.0353 LP  0  0  0  0  0  0  0  0  0  0  0  0  # atno 4301 bound_to 2510
    2.5843   -7.7016    4.5417 LP  0  0  0  0  0  0  0  0  0  0  0  0  # atno 4302 bound_to 2510
   -2.7712  -17.8151   14.7067 LP  0  0  0  0  0  0  0  0  0  0  0  0  # atno 4306 bound_to 3712
   -3.5530  -16.5574   14.0185 LP  0  0  0  0  0  0  0  0  0  0  0  0  # atno 4307 bound_to 3712
    1.3959  -20.2164    9.2158 LP  0  0  0  0  0  0  0  0  0  0  0  0  # atno 4314 bound_to 3832
    2.5580  -19.8184    8.1399 LP  0  0  0  0  0  0  0  0  0  0  0  0  # atno 4315 bound_to 3832
   -3.9093  -22.9631   11.2242 LP  0  0  0  0  0  0  0  0  0  0  0  0  # atno 4318 bound_to 3762
   -5.0585  -22.9974   10.0645 LP  0  0  0  0  0  0  0  0  0  0  0  0  # atno 4319 bound_to 3762
   -3.6428   -5.0826    8.6961 LP  0  0  0  0  0  0  0  0  0  0  0  0  # atno 4320 bound_to 2467
   -5.1444   -5.4399    9.2292 LP  0  0  0  0  0  0  0  0  0  0  0  0  # atno 4321 bound_to 2467

> <Gold.Score>
     Score     S(PLP)   S(hbond)     S(cho)   S(metal)  DE(clash)   DE(tors)     intcor
     59.53     -48.16       3.00       1.00       0.00       0.00       0.34       0.05

> <Gold.PLP.Fitness>
59.5316

> <Gold.PLP.PLP>
-48.1596

> <Gold.PLP.part.hbond>
-3.0000

> <Gold.PLP.part.metal>
0.0000

> <Gold.PLP.part.buried>
-6.2348

> <Gold.PLP.part.nonpolar>
-40.4127

> <Gold.PLP.part.repulsive>
0.1052

> <Gold.PLP.ligand.clash>
0.0000

> <Gold.PLP.ligand.torsion>
0.3380

> <Gold.PLP.Chemscore.Hbond>
3.0000

> <Gold.PLP.Chemscore.CHOScore>
1.0000

> <Gold.PLP.Chemscore.Metal>
0.0000

> <Gold.Chemscore.Hbonds>
donor molecule, donor type, donor heavy atom, donor atom, acceptor molecule, acceptor atom, score
      L1  H     4    30       P1  1227  1.00
      P1  H  2305  2313       L1    18  1.00
      P1  H  3712  3721       L1     3  1.00
      L1  C     8    25       P1  1227  1.00

> <Gold.PLP.Chemscore.Internal.Correction>
0.0480

