#       Name:                EN300-18555_i001
#       Creating user name   fsindt
#       Creation time:       Tue Feb 28 04:06:49 2023


#       File generated by GOLD software.
#

@<TRIPOS>MOLECULE
EN300-18555_i001|acide_1|mol2|2798|dock15
    31    32     1
SMALL
USER_CHARGES


@<TRIPOS>ATOM
      1 C1           0.3507 -13.7224   9.4156 C.3            1 <1>                0.0000
      2 C2           0.2012 -14.4868  10.7056 C.2            1 <1>                0.0000
      3 O3          -0.4813 -14.0368  11.6015 O.2            1 <1>                0.0000
      4 N4           0.8259 -15.6705  10.8638 N.am           1 <1>                0.0000
      5 C5           0.6805 -16.4136  12.1179 C.3            1 <1>                0.0000
      6 C6           2.0419 -16.9676  12.5432 C.3            1 <1>                0.0000
      7 C7           1.8526 -17.9657  13.6562 C.2            1 <1>                0.0000
      8 C8           1.9805 -17.7290  14.9714 C.2            1 <1>                0.0000
      9 N9           1.7327 -18.8743  15.6779 N.pl3          1 <1>                0.0000
     10 C10          1.4317 -19.9022  14.8126 C.ar           1 <1>                0.0000
     11 C11          1.1074 -21.2426  14.9939 C.ar           1 <1>                0.0000
     12 C12          0.8512 -22.0388  13.8989 C.ar           1 <1>                0.0000
     13 C13          0.9134 -21.5171  12.6143 C.ar           1 <1>                0.0000
     14 C14          1.2308 -20.2031  12.4133 C.ar           1 <1>                0.0000
     15 C15          1.4879 -19.3768  13.5086 C.ar           1 <1>                0.0000
     16 C16         -0.2852 -17.5531  11.9176 C.2            1 <1>                0.0000
     17 O17         -0.8535 -18.0462  12.8770 O.co2          1 <1>                0.0000
     18 O18         -0.4980 -17.9818  10.7963 O.co2          1 <1>               -1.0000
     19 H19         -0.2222 -12.7968   9.4732 H              1 <1>                0.0000
     20 H20          1.4026 -13.4889   9.2513 H              1 <1>                0.0000
     21 H21         -0.0203 -14.3284   8.5890 H              1 <1>                0.0000
     22 H22          0.3011 -15.7478  12.8929 H              1 <1>                0.0000
     23 H23          2.5166 -17.4572  11.6929 H              1 <1>                0.0000
     24 H24          2.6739 -16.1507  12.8914 H              1 <1>                0.0000
     25 H25          2.2406 -16.7757  15.4073 H              1 <1>                0.0000
     26 H26          1.0567 -21.6579  15.9896 H              1 <1>                0.0000
     27 H27          0.5998 -23.0794  14.0417 H              1 <1>                0.0000
     28 H28          0.7099 -22.1548  11.7668 H              1 <1>                0.0000
     29 H29          1.2777 -19.8042  11.4107 H              1 <1>                0.0000
     30 H30          1.3717 -16.0304  10.1472 H              1 <1>                0.0000
     31 H31          1.7645 -18.9507  16.6444 H              1 <1>                0.0000
@<TRIPOS>BOND
    1    1    2 1     
    2    1   19 1     
    3    1   20 1     
    4    1   21 1     
    5    2    3 2     
    6    2    4 am    
    7    4    5 1     
    8    4   30 1     
    9    5    6 1     
   10    5   16 1     
   11    5   22 1     
   12    6    7 1     
   13    6   23 1     
   14    6   24 1     
   15    7    8 2     
   16    7   15 1     
   17    8    9 1     
   18    8   25 1     
   19    9   10 1     
   20    9   31 1     
   21   10   11 ar    
   22   10   15 ar    
   23   11   12 ar    
   24   11   26 1     
   25   12   13 ar    
   26   12   27 1     
   27   13   14 ar    
   28   13   28 1     
   29   14   15 ar    
   30   14   29 1     
   31   16   17 ar    
   32   16   18 ar    
@<TRIPOS>SUBSTRUCTURE
      1 ****           1
@<TRIPOS>SET
DONOR_HYDROGENS      STATIC     ATOMS    <user>   **** ""
2 30 31
ATOM$RED        STATIC     ATOMS    COLORGROUP SYSTEM
2 30 31
@<TRIPOS>COMMENT
> <Gold.Version>
2022.2.0

> <Gold.Id.Protein>
3pbl|protein|mol2

> <Gold.Protein.RotatedTorsions>
[ 1303 1298 1297 1294 ] final  -81.03 input  179.99 | X-H torsion
[ 2461 2456 2455 2452 ] final -111.99 input   30.03 | X-H torsion
[ 2515 2510 2509 2506 ] final -159.19 input  -89.99 | X-H torsion
[ 3721 3712 3711 3710 ] final   42.55 input -179.91 | X-H torsion
[ 3841 3832 3831 3830 ] final  -50.08 input -179.91 | X-H torsion
[ 3767 3762 3761 3758 ] final   57.60 input  -89.99 | X-H torsion
[ 2472 2467 2466 2463 ] final  -42.85 input  -89.97 | X-H torsion

> <Gold.Protein.ActiveResidues>
 VAL82   VAL86   LEU89   PHE106  VAL107  ASP110  VAL111  MET112  CYS114  THR115 
 CYS181  SER182  ILE183  PHE188  VAL189  ILE190  SER192  SER193  SER196  TRP342 
 PHE345  PHE346  HIS349  VAL350  TYR365  THR369  GLY372  TYR373 

> <Gold.Protein.RotatedAtoms>
    3.7155   -8.7138    3.8266 H   0  0  0  0  0  0  0  0  0  0  0  0  # atno 1303 bound_to 1298
    0.4952   -9.1157    7.9665 H   0  0  0  0  0  0  0  0  0  0  0  0  # atno 2461 bound_to 2456
   -3.6448   -5.0887    8.7101 H   0  0  0  0  0  0  0  0  0  0  0  0  # atno 2472 bound_to 2467
    2.4689   -9.2039    5.5835 H   0  0  0  0  0  0  0  0  0  0  0  0  # atno 2515 bound_to 2510
   -2.5153  -18.0042   13.6163 H   0  0  0  0  0  0  0  0  0  0  0  0  # atno 3721 bound_to 3712
   -4.6023  -23.2690   10.1765 H   0  0  0  0  0  0  0  0  0  0  0  0  # atno 3767 bound_to 3762
    1.5758  -19.9075    9.1396 H   0  0  0  0  0  0  0  0  0  0  0  0  # atno 3841 bound_to 3832
    4.9120   -9.1762    4.8369 LP  0  0  0  0  0  0  0  0  0  0  0  0  # atno 4297 bound_to 1298
    3.7348  -10.2316    4.4283 LP  0  0  0  0  0  0  0  0  0  0  0  0  # atno 4298 bound_to 1298
    2.0749   -8.7407    8.1433 LP  0  0  0  0  0  0  0  0  0  0  0  0  # atno 4299 bound_to 2456
    1.1674   -7.9519    7.0385 LP  0  0  0  0  0  0  0  0  0  0  0  0  # atno 4300 bound_to 2456
    2.0657   -7.6289    5.7338 LP  0  0  0  0  0  0  0  0  0  0  0  0  # atno 4301 bound_to 2510
    2.7620   -8.1659    4.3578 LP  0  0  0  0  0  0  0  0  0  0  0  0  # atno 4302 bound_to 2510
   -3.1295  -17.1687   14.8421 LP  0  0  0  0  0  0  0  0  0  0  0  0  # atno 4306 bound_to 3712
   -3.4942  -16.7713   13.3008 LP  0  0  0  0  0  0  0  0  0  0  0  0  # atno 4307 bound_to 3712
    2.8465  -20.0512    8.1697 LP  0  0  0  0  0  0  0  0  0  0  0  0  # atno 4314 bound_to 3832
    2.5626  -21.1579    9.3364 LP  0  0  0  0  0  0  0  0  0  0  0  0  # atno 4315 bound_to 3832
   -5.4510  -22.0435   10.8433 LP  0  0  0  0  0  0  0  0  0  0  0  0  # atno 4318 bound_to 3762
   -4.0740  -22.5628   11.5510 LP  0  0  0  0  0  0  0  0  0  0  0  0  # atno 4319 bound_to 3762
   -5.1563   -5.4379    9.2199 LP  0  0  0  0  0  0  0  0  0  0  0  0  # atno 4320 bound_to 2467
   -4.9157   -4.8669    7.7091 LP  0  0  0  0  0  0  0  0  0  0  0  0  # atno 4321 bound_to 2467

> <Gold.Score>
     Score     S(PLP)   S(hbond)     S(cho)   S(metal)  DE(clash)   DE(tors)     intcor
     45.66     -39.34       2.91       0.00       0.00       0.00       1.23       0.05

> <Gold.PLP.Fitness>
45.6581

> <Gold.PLP.PLP>
-39.3406

> <Gold.PLP.part.hbond>
-3.0000

> <Gold.PLP.part.metal>
0.0000

> <Gold.PLP.part.buried>
-4.3866

> <Gold.PLP.part.nonpolar>
-33.3057

> <Gold.PLP.part.repulsive>
0.2116

> <Gold.PLP.ligand.clash>
0.0000

> <Gold.PLP.ligand.torsion>
1.2331

> <Gold.PLP.Chemscore.Hbond>
2.9119

> <Gold.PLP.Chemscore.CHOScore>
0.0000

> <Gold.PLP.Chemscore.Metal>
0.0000

> <Gold.Chemscore.Hbonds>
donor molecule, donor type, donor heavy atom, donor atom, acceptor molecule, acceptor atom, score
      L1  H     4    30       P1  1227  0.92
      L1  H     9    31       P1  2287  0.99
      P1  H  3712  3721       L1    17  1.00

> <Gold.PLP.Chemscore.Internal.Correction>
0.0480

