#       Name:                EN300-18555_i001
#       Creating user name   fsindt
#       Creation time:       Tue Feb 28 04:06:50 2023


#       File generated by GOLD software.
#

@<TRIPOS>MOLECULE
EN300-18555_i001|acide_1|mol2|2798|dock16
    31    32     1
SMALL
USER_CHARGES


@<TRIPOS>ATOM
      1 C1          -1.2453 -24.8619  16.0099 C.3            1 <1>                0.0000
      2 C2          -0.7180 -23.9472  14.9346 C.2            1 <1>                0.0000
      3 O3           0.1950 -24.3104  14.2236 O.2            1 <1>                0.0000
      4 N4          -1.2608 -22.7256  14.7631 N.am           1 <1>                0.0000
      5 C5          -0.7482 -21.8364  13.7178 C.3            1 <1>                0.0000
      6 C6          -1.2620 -20.4157  13.9596 C.3            1 <1>                0.0000
      7 C7          -0.1347 -19.5530  14.4654 C.2            1 <1>                0.0000
      8 C8           0.6495 -19.8043  15.5255 C.2            1 <1>                0.0000
      9 N9           1.5634 -18.7976  15.6790 N.pl3          1 <1>                0.0000
     10 C10          1.3852 -17.8497  14.6963 C.ar           1 <1>                0.0000
     11 C11          2.0251 -16.6526  14.3932 C.ar           1 <1>                0.0000
     12 C12          1.6047 -15.9060  13.3141 C.ar           1 <1>                0.0000
     13 C13          0.5472 -16.3361  12.5247 C.ar           1 <1>                0.0000
     14 C14         -0.0961 -17.5087  12.8049 C.ar           1 <1>                0.0000
     15 C15          0.3174 -18.2841  13.8896 C.ar           1 <1>                0.0000
     16 C16         -1.2213 -22.3192  12.3710 C.2            1 <1>                0.0000
     17 O17         -0.7129 -21.8809  11.3532 O.co2          1 <1>                0.0000
     18 O18         -2.1124 -23.1482  12.2991 O.co2          1 <1>               -1.0000
     19 H19         -0.6868 -25.7979  15.9967 H              1 <1>                0.0000
     20 H20         -1.1300 -24.3838  16.9826 H              1 <1>                0.0000
     21 H21         -2.3005 -25.0659  15.8281 H              1 <1>                0.0000
     22 H22          0.3415 -21.8376  13.7421 H              1 <1>                0.0000
     23 H23         -1.6441 -20.0036  13.0257 H              1 <1>                0.0000
     24 H24         -2.0615 -20.4396  14.7001 H              1 <1>                0.0000
     25 H25          0.5705 -20.6724  16.1631 H              1 <1>                0.0000
     26 H26          2.8488 -16.3093  15.0017 H              1 <1>                0.0000
     27 H27          2.1027 -14.9766  13.0805 H              1 <1>                0.0000
     28 H28          0.2301 -15.7390  11.6826 H              1 <1>                0.0000
     29 H29         -0.9185 -17.8369  12.1864 H              1 <1>                0.0000
     30 H30         -1.9910 -22.4351  15.3318 H              1 <1>                0.0000
     31 H31          2.2366 -18.7576  16.3762 H              1 <1>                0.0000
@<TRIPOS>BOND
    1    1    2 1     
    2    1   19 1     
    3    1   20 1     
    4    1   21 1     
    5    2    3 2     
    6    2    4 am    
    7    4    5 1     
    8    4   30 1     
    9    5    6 1     
   10    5   16 1     
   11    5   22 1     
   12    6    7 1     
   13    6   23 1     
   14    6   24 1     
   15    7    8 2     
   16    7   15 1     
   17    8    9 1     
   18    8   25 1     
   19    9   10 1     
   20    9   31 1     
   21   10   11 ar    
   22   10   15 ar    
   23   11   12 ar    
   24   11   26 1     
   25   12   13 ar    
   26   12   27 1     
   27   13   14 ar    
   28   13   28 1     
   29   14   15 ar    
   30   14   29 1     
   31   16   17 ar    
   32   16   18 ar    
@<TRIPOS>SUBSTRUCTURE
      1 ****           1
@<TRIPOS>SET
DONOR_HYDROGENS      STATIC     ATOMS    <user>   **** ""
2 30 31
ATOM$RED        STATIC     ATOMS    COLORGROUP SYSTEM
2 30 31
@<TRIPOS>COMMENT
> <Gold.Version>
2022.2.0

> <Gold.Id.Protein>
3pbl|protein|mol2

> <Gold.Protein.RotatedTorsions>
[ 1303 1298 1297 1294 ] final -104.89 input  179.99 | X-H torsion
[ 2461 2456 2455 2452 ] final  138.43 input   30.03 | X-H torsion
[ 2515 2510 2509 2506 ] final  -80.96 input  -89.99 | X-H torsion
[ 3721 3712 3711 3710 ] final    6.34 input -179.91 | X-H torsion
[ 3841 3832 3831 3830 ] final  157.35 input -179.91 | X-H torsion
[ 3767 3762 3761 3758 ] final  145.41 input  -89.99 | X-H torsion
[ 2472 2467 2466 2463 ] final  154.18 input  -89.97 | X-H torsion

> <Gold.Protein.ActiveResidues>
 VAL82   VAL86   LEU89   PHE106  VAL107  ASP110  VAL111  MET112  CYS114  THR115 
 CYS181  SER182  ILE183  PHE188  VAL189  ILE190  SER192  SER193  SER196  TRP342 
 PHE345  PHE346  HIS349  VAL350  TYR365  THR369  GLY372  TYR373 

> <Gold.Protein.RotatedAtoms>
    4.0250   -8.5237    3.9679 H   0  0  0  0  0  0  0  0  0  0  0  0  # atno 1303 bound_to 1298
    1.9913   -8.8600    8.2333 H   0  0  0  0  0  0  0  0  0  0  0  0  # atno 2461 bound_to 2456
   -5.4997   -5.2692    8.6449 H   0  0  0  0  0  0  0  0  0  0  0  0  # atno 2472 bound_to 2467
    2.8332   -8.8140    4.5208 H   0  0  0  0  0  0  0  0  0  0  0  0  # atno 2515 bound_to 2510
   -2.4762  -17.9893   14.1529 H   0  0  0  0  0  0  0  0  0  0  0  0  # atno 3721 bound_to 3712
   -3.9102  -22.9490   11.2391 H   0  0  0  0  0  0  0  0  0  0  0  0  # atno 3767 bound_to 3762
    3.1014  -20.3185    8.5629 H   0  0  0  0  0  0  0  0  0  0  0  0  # atno 3841 bound_to 3832
    4.8488   -9.5476    4.9371 LP  0  0  0  0  0  0  0  0  0  0  0  0  # atno 4297 bound_to 1298
    3.4884  -10.0503    4.1868 LP  0  0  0  0  0  0  0  0  0  0  0  0  # atno 4298 bound_to 1298
    1.3336   -7.9235    7.0681 LP  0  0  0  0  0  0  0  0  0  0  0  0  # atno 4299 bound_to 2456
    0.4131   -9.0247    7.8469 LP  0  0  0  0  0  0  0  0  0  0  0  0  # atno 4300 bound_to 2456
    2.1917   -8.7763    6.0217 LP  0  0  0  0  0  0  0  0  0  0  0  0  # atno 4301 bound_to 2510
    2.2716   -7.4086    5.1332 LP  0  0  0  0  0  0  0  0  0  0  0  0  # atno 4302 bound_to 2510
   -3.4039  -16.7369   14.5384 LP  0  0  0  0  0  0  0  0  0  0  0  0  # atno 4306 bound_to 3712
   -3.2650  -17.2205   12.9848 LP  0  0  0  0  0  0  0  0  0  0  0  0  # atno 4307 bound_to 3712
    2.0326  -21.0151    9.5367 LP  0  0  0  0  0  0  0  0  0  0  0  0  # atno 4314 bound_to 3832
    1.6142  -19.7192    8.6355 LP  0  0  0  0  0  0  0  0  0  0  0  0  # atno 4315 bound_to 3832
   -5.0425  -23.0107   10.0640 LP  0  0  0  0  0  0  0  0  0  0  0  0  # atno 4318 bound_to 3762
   -5.1743  -21.9155   11.2681 LP  0  0  0  0  0  0  0  0  0  0  0  0  # atno 4319 bound_to 3762
   -4.2288   -4.8001    7.7332 LP  0  0  0  0  0  0  0  0  0  0  0  0  # atno 4320 bound_to 2467
   -3.9885   -5.3242    9.2610 LP  0  0  0  0  0  0  0  0  0  0  0  0  # atno 4321 bound_to 2467

> <Gold.Score>
     Score     S(PLP)   S(hbond)     S(cho)   S(metal)  DE(clash)   DE(tors)     intcor
     44.35     -40.72       1.99       0.00       0.00       0.00       1.20       0.05

> <Gold.PLP.Fitness>
44.3484

> <Gold.PLP.PLP>
-40.7243

> <Gold.PLP.part.hbond>
-2.0000

> <Gold.PLP.part.metal>
0.0000

> <Gold.PLP.part.buried>
-6.6290

> <Gold.PLP.part.nonpolar>
-32.5090

> <Gold.PLP.part.repulsive>
0.2205

> <Gold.PLP.ligand.clash>
0.0000

> <Gold.PLP.ligand.torsion>
1.1999

> <Gold.PLP.Chemscore.Hbond>
1.9920

> <Gold.PLP.Chemscore.CHOScore>
0.0000

> <Gold.PLP.Chemscore.Metal>
0.0000

> <Gold.Chemscore.Hbonds>
donor molecule, donor type, donor heavy atom, donor atom, acceptor molecule, acceptor atom, score
      L1  H     9    31       P1  2287  0.99
      P1  H  3762  3767       L1    18  1.00

> <Gold.PLP.Chemscore.Internal.Correction>
0.0480

