#       Name:                EN300-18555_i001
#       Creating user name   fsindt
#       Creation time:       Tue Feb 28 04:06:51 2023


#       File generated by GOLD software.
#

@<TRIPOS>MOLECULE
EN300-18555_i001|acide_1|mol2|2798|dock17
    31    32     1
SMALL
USER_CHARGES


@<TRIPOS>ATOM
      1 C1           0.5089 -11.8367   6.9677 C.3            1 <1>                0.0000
      2 C2           0.3931 -11.5916   8.4501 C.2            1 <1>                0.0000
      3 O3           1.1345 -10.8006   8.9937 O.2            1 <1>                0.0000
      4 N4          -0.5345 -12.2513   9.1717 N.am           1 <1>                0.0000
      5 C5          -0.6471 -12.0131  10.6128 C.3            1 <1>                0.0000
      6 C6          -1.3087 -13.2210  11.2793 C.3            1 <1>                0.0000
      7 C7          -0.3086 -14.3426  11.3925 C.2            1 <1>                0.0000
      8 C8           0.5606 -14.7359  10.4480 C.2            1 <1>                0.0000
      9 N9           1.3087 -15.7844  10.9100 N.pl3          1 <1>                0.0000
     10 C10          0.9297 -16.0994  12.1956 C.ar           1 <1>                0.0000
     11 C11          1.3532 -17.0566  13.1115 C.ar           1 <1>                0.0000
     12 C12          0.7625 -17.1229  14.3547 C.ar           1 <1>                0.0000
     13 C13         -0.2528 -16.2434  14.7037 C.ar           1 <1>                0.0000
     14 C14         -0.6848 -15.2956  13.8190 C.ar           1 <1>                0.0000
     15 C15         -0.0960 -15.2064  12.5564 C.ar           1 <1>                0.0000
     16 C16         -1.4853 -10.7843  10.8549 C.2            1 <1>                0.0000
     17 O17         -2.6525 -10.7637  10.5034 O.co2          1 <1>                0.0000
     18 O18         -0.9960  -9.8108  11.4021 O.co2          1 <1>               -1.0000
     19 H19          1.3079 -11.2183   6.5585 H              1 <1>                0.0000
     20 H20          0.7357 -12.8878   6.7897 H              1 <1>                0.0000
     21 H21         -0.4330 -11.5810   6.4824 H              1 <1>                0.0000
     22 H22          0.3466 -11.8641  11.0352 H              1 <1>                0.0000
     23 H23         -1.6560 -12.9422  12.2740 H              1 <1>                0.0000
     24 H24         -2.1560 -13.5493  10.6773 H              1 <1>                0.0000
     25 H25          0.6551 -14.2909   9.4686 H              1 <1>                0.0000
     26 H26          2.1424 -17.7457  12.8492 H              1 <1>                0.0000
     27 H27          1.0926 -17.8670  15.0644 H              1 <1>                0.0000
     28 H28         -0.7053 -16.3088  15.6821 H              1 <1>                0.0000
     29 H29         -1.4756 -14.6148  14.0975 H              1 <1>                0.0000
     30 H30         -1.1275 -12.8840   8.7369 H              1 <1>                0.0000
     31 H31          2.0027 -16.2381  10.4066 H              1 <1>                0.0000
@<TRIPOS>BOND
    1    1    2 1     
    2    1   19 1     
    3    1   20 1     
    4    1   21 1     
    5    2    3 2     
    6    2    4 am    
    7    4    5 1     
    8    4   30 1     
    9    5    6 1     
   10    5   16 1     
   11    5   22 1     
   12    6    7 1     
   13    6   23 1     
   14    6   24 1     
   15    7    8 2     
   16    7   15 1     
   17    8    9 1     
   18    8   25 1     
   19    9   10 1     
   20    9   31 1     
   21   10   11 ar    
   22   10   15 ar    
   23   11   12 ar    
   24   11   26 1     
   25   12   13 ar    
   26   12   27 1     
   27   13   14 ar    
   28   13   28 1     
   29   14   15 ar    
   30   14   29 1     
   31   16   17 ar    
   32   16   18 ar    
@<TRIPOS>SUBSTRUCTURE
      1 ****           1
@<TRIPOS>SET
DONOR_HYDROGENS      STATIC     ATOMS    <user>   **** ""
2 30 31
ATOM$RED        STATIC     ATOMS    COLORGROUP SYSTEM
2 30 31
@<TRIPOS>COMMENT
> <Gold.Version>
2022.2.0

> <Gold.Id.Protein>
3pbl|protein|mol2

> <Gold.Protein.RotatedTorsions>
[ 1303 1298 1297 1294 ] final  109.31 input  179.99 | X-H torsion
[ 2461 2456 2455 2452 ] final -162.65 input   30.03 | X-H torsion
[ 2515 2510 2509 2506 ] final  149.18 input  -89.99 | X-H torsion
[ 3721 3712 3711 3710 ] final -137.78 input -179.91 | X-H torsion
[ 3841 3832 3831 3830 ] final  -33.34 input -179.91 | X-H torsion
[ 3767 3762 3761 3758 ] final  -53.74 input  -89.99 | X-H torsion
[ 2472 2467 2466 2463 ] final -113.26 input  -89.97 | X-H torsion

> <Gold.Protein.ActiveResidues>
 VAL82   VAL86   LEU89   PHE106  VAL107  ASP110  VAL111  MET112  CYS114  THR115 
 CYS181  SER182  ILE183  PHE188  VAL189  ILE190  SER192  SER193  SER196  TRP342 
 PHE345  PHE346  HIS349  VAL350  TYR365  THR369  GLY372  TYR373 

> <Gold.Protein.RotatedAtoms>
    4.6410   -9.9136    4.9353 H   0  0  0  0  0  0  0  0  0  0  0  0  # atno 1303 bound_to 1298
    1.1754   -9.2802    8.3683 H   0  0  0  0  0  0  0  0  0  0  0  0  # atno 2461 bound_to 2456
   -4.3922   -5.4278    9.4230 H   0  0  0  0  0  0  0  0  0  0  0  0  # atno 2472 bound_to 2467
    2.1400   -8.6306    6.0702 H   0  0  0  0  0  0  0  0  0  0  0  0  # atno 2515 bound_to 2510
   -3.2945  -16.5588   14.1681 H   0  0  0  0  0  0  0  0  0  0  0  0  # atno 3721 bound_to 3712
   -5.4883  -22.1109   10.7237 H   0  0  0  0  0  0  0  0  0  0  0  0  # atno 3767 bound_to 3762
    1.5651  -20.0918    9.3111 H   0  0  0  0  0  0  0  0  0  0  0  0  # atno 3841 bound_to 3832
    3.3444   -9.7255    3.9606 LP  0  0  0  0  0  0  0  0  0  0  0  0  # atno 4297 bound_to 1298
    4.3766   -8.4821    4.1954 LP  0  0  0  0  0  0  0  0  0  0  0  0  # atno 4298 bound_to 1298
    2.0715   -8.1706    7.5725 LP  0  0  0  0  0  0  0  0  0  0  0  0  # atno 4299 bound_to 2456
    0.4908   -8.3576    7.2075 LP  0  0  0  0  0  0  0  0  0  0  0  0  # atno 4300 bound_to 2456
    2.3375   -7.4260    4.9860 LP  0  0  0  0  0  0  0  0  0  0  0  0  # atno 4301 bound_to 2510
    2.8194   -8.9424    4.6187 LP  0  0  0  0  0  0  0  0  0  0  0  0  # atno 4302 bound_to 2510
   -3.0423  -17.6097   12.9807 LP  0  0  0  0  0  0  0  0  0  0  0  0  # atno 4306 bound_to 3712
   -2.6818  -17.9992   14.5250 LP  0  0  0  0  0  0  0  0  0  0  0  0  # atno 4307 bound_to 3712
    2.6371  -19.8702    8.1373 LP  0  0  0  0  0  0  0  0  0  0  0  0  # atno 4314 bound_to 3832
    2.7843  -21.1261    9.1706 LP  0  0  0  0  0  0  0  0  0  0  0  0  # atno 4315 bound_to 3832
   -4.1551  -22.4569   11.6010 LP  0  0  0  0  0  0  0  0  0  0  0  0  # atno 4318 bound_to 3762
   -4.4843  -23.3071   10.2463 LP  0  0  0  0  0  0  0  0  0  0  0  0  # atno 4319 bound_to 3762
   -5.4594   -5.1136    8.2277 LP  0  0  0  0  0  0  0  0  0  0  0  0  # atno 4320 bound_to 2467
   -3.8653   -4.8521    7.9886 LP  0  0  0  0  0  0  0  0  0  0  0  0  # atno 4321 bound_to 2467

> <Gold.Score>
     Score     S(PLP)   S(hbond)     S(cho)   S(metal)  DE(clash)   DE(tors)     intcor
     52.71     -48.06       2.00       0.00       0.00       0.00       0.69       0.04

> <Gold.PLP.Fitness>
52.7093

> <Gold.PLP.PLP>
-48.0550

> <Gold.PLP.part.hbond>
-2.0000

> <Gold.PLP.part.metal>
0.0000

> <Gold.PLP.part.buried>
-6.6791

> <Gold.PLP.part.nonpolar>
-39.4609

> <Gold.PLP.part.repulsive>
0.1375

> <Gold.PLP.ligand.clash>
0.0000

> <Gold.PLP.ligand.torsion>
0.6929

> <Gold.PLP.Chemscore.Hbond>
2.0000

> <Gold.PLP.Chemscore.CHOScore>
0.0000

> <Gold.PLP.Chemscore.Metal>
0.0000

> <Gold.Chemscore.Hbonds>
donor molecule, donor type, donor heavy atom, donor atom, acceptor molecule, acceptor atom, score
      L1  H     9    31       P1  1227  1.00
      P1  H  2456  2461       L1     3  1.00

> <Gold.PLP.Chemscore.Internal.Correction>
0.0400

