#       Name:                EN300-18555_i001
#       Creating user name   fsindt
#       Creation time:       Tue Feb 28 04:06:45 2023


#       File generated by GOLD software.
#

@<TRIPOS>MOLECULE
EN300-18555_i001|acide_1|mol2|2798|dock11
    31    32     1
SMALL
USER_CHARGES


@<TRIPOS>ATOM
      1 C1          -0.9929 -19.8099  12.7175 C.3            1 <1>                0.0000
      2 C2          -0.3328 -18.4646  12.5581 C.2            1 <1>                0.0000
      3 O3           0.8550 -18.3960  12.3228 O.2            1 <1>                0.0000
      4 N4          -1.0624 -17.3377  12.6772 N.am           1 <1>                0.0000
      5 C5          -0.4207 -16.0299  12.5223 C.3            1 <1>                0.0000
      6 C6           0.1142 -15.8900  11.0957 C.3            1 <1>                0.0000
      7 C7          -0.0868 -14.4741  10.6204 C.2            1 <1>                0.0000
      8 C8          -0.7008 -13.4863  11.2907 C.2            1 <1>                0.0000
      9 N9          -0.6917 -12.3398  10.5438 N.pl3          1 <1>                0.0000
     10 C10         -0.0554 -12.5676   9.3442 C.ar           1 <1>                0.0000
     11 C11          0.2261 -11.7668   8.2424 C.ar           1 <1>                0.0000
     12 C12          0.8977 -12.2991   7.1633 C.ar           1 <1>                0.0000
     13 C13          1.2969 -13.6282   7.1635 C.ar           1 <1>                0.0000
     14 C14          1.0301 -14.4330   8.2353 C.ar           1 <1>                0.0000
     15 C15          0.3565 -13.9129   9.3419 C.ar           1 <1>                0.0000
     16 C16          0.7197 -15.9108  13.5002 C.2            1 <1>                0.0000
     17 O17          0.4954 -15.8888  14.6984 O.co2          1 <1>                0.0000
     18 O18          1.8666 -15.8365  13.0931 O.co2          1 <1>               -1.0000
     19 H19         -0.2497 -20.5969  12.5883 H              1 <1>                0.0000
     20 H20         -1.4313 -19.8841  13.7126 H              1 <1>                0.0000
     21 H21         -1.7750 -19.9221  11.9666 H              1 <1>                0.0000
     22 H22         -1.1491 -15.2426  12.7160 H              1 <1>                0.0000
     23 H23          1.1771 -16.1308  11.0809 H              1 <1>                0.0000
     24 H24         -0.4224 -16.5736  10.4378 H              1 <1>                0.0000
     25 H25         -1.1375 -13.5824  12.2737 H              1 <1>                0.0000
     26 H26         -0.0807 -10.7313   8.2326 H              1 <1>                0.0000
     27 H27          1.1151 -11.6757   6.3086 H              1 <1>                0.0000
     28 H28          1.8223 -14.0298   6.3097 H              1 <1>                0.0000
     29 H29          1.3435 -15.4666   8.2282 H              1 <1>                0.0000
     30 H30         -2.0124 -17.3926  12.8654 H              1 <1>                0.0000
     31 H31         -1.0763 -11.4927  10.8186 H              1 <1>                0.0000
@<TRIPOS>BOND
    1    1    2 1     
    2    1   19 1     
    3    1   20 1     
    4    1   21 1     
    5    2    3 2     
    6    2    4 am    
    7    4    5 1     
    8    4   30 1     
    9    5    6 1     
   10    5   16 1     
   11    5   22 1     
   12    6    7 1     
   13    6   23 1     
   14    6   24 1     
   15    7    8 2     
   16    7   15 1     
   17    8    9 1     
   18    8   25 1     
   19    9   10 1     
   20    9   31 1     
   21   10   11 ar    
   22   10   15 ar    
   23   11   12 ar    
   24   11   26 1     
   25   12   13 ar    
   26   12   27 1     
   27   13   14 ar    
   28   13   28 1     
   29   14   15 ar    
   30   14   29 1     
   31   16   17 ar    
   32   16   18 ar    
@<TRIPOS>SUBSTRUCTURE
      1 ****           1
@<TRIPOS>SET
DONOR_HYDROGENS      STATIC     ATOMS    <user>   **** ""
2 30 31
ATOM$RED        STATIC     ATOMS    COLORGROUP SYSTEM
2 30 31
@<TRIPOS>COMMENT
> <Gold.Version>
2022.2.0

> <Gold.Id.Protein>
3pbl|protein|mol2

> <Gold.Protein.RotatedTorsions>
[ 1303 1298 1297 1294 ] final   53.09 input  179.99 | X-H torsion
[ 2461 2456 2455 2452 ] final  -25.34 input   30.03 | X-H torsion
[ 2515 2510 2509 2506 ] final   32.89 input  -89.99 | X-H torsion
[ 3721 3712 3711 3710 ] final -108.55 input -179.91 | X-H torsion
[ 3841 3832 3831 3830 ] final  176.10 input -179.91 | X-H torsion
[ 3767 3762 3761 3758 ] final   74.66 input  -89.99 | X-H torsion
[ 2472 2467 2466 2463 ] final   86.60 input  -89.97 | X-H torsion

> <Gold.Protein.ActiveResidues>
 VAL82   VAL86   LEU89   PHE106  VAL107  ASP110  VAL111  MET112  CYS114  THR115 
 CYS181  SER182  ILE183  PHE188  VAL189  ILE190  SER192  SER193  SER196  TRP342 
 PHE345  PHE346  HIS349  VAL350  TYR365  THR369  GLY372  TYR373 

> <Gold.Protein.RotatedAtoms>
    3.9146  -10.2704    4.5690 H   0  0  0  0  0  0  0  0  0  0  0  0  # atno 1303 bound_to 1298
    0.6787   -8.1779    7.0937 H   0  0  0  0  0  0  0  0  0  0  0  0  # atno 2461 bound_to 2456
   -5.0542   -4.9044    7.7684 H   0  0  0  0  0  0  0  0  0  0  0  0  # atno 2472 bound_to 2467
    2.3125   -7.4166    5.0408 H   0  0  0  0  0  0  0  0  0  0  0  0  # atno 2515 bound_to 2510
   -3.1514  -16.7518   14.5332 H   0  0  0  0  0  0  0  0  0  0  0  0  # atno 3721 bound_to 3712
   -4.3737  -23.3286   10.3263 H   0  0  0  0  0  0  0  0  0  0  0  0  # atno 3767 bound_to 3762
    2.9900  -20.0949    8.4317 H   0  0  0  0  0  0  0  0  0  0  0  0  # atno 3841 bound_to 3832
    3.5622   -8.8822    3.7848 LP  0  0  0  0  0  0  0  0  0  0  0  0  # atno 4297 bound_to 1298
    4.8854   -8.9683    4.7377 LP  0  0  0  0  0  0  0  0  0  0  0  0  # atno 4298 bound_to 1298
    0.9072   -9.2815    8.2758 LP  0  0  0  0  0  0  0  0  0  0  0  0  # atno 4299 bound_to 2456
    2.1517   -8.3486    7.7784 LP  0  0  0  0  0  0  0  0  0  0  0  0  # atno 4300 bound_to 2456
    2.8260   -8.8962    4.5795 LP  0  0  0  0  0  0  0  0  0  0  0  0  # atno 4301 bound_to 2510
    2.1583   -8.6867    6.0550 LP  0  0  0  0  0  0  0  0  0  0  0  0  # atno 4302 bound_to 2510
   -3.2815  -17.1901   12.9942 LP  0  0  0  0  0  0  0  0  0  0  0  0  # atno 4306 bound_to 3712
   -2.6077  -18.1960   14.0900 LP  0  0  0  0  0  0  0  0  0  0  0  0  # atno 4307 bound_to 3712
    2.3145  -21.1250    9.4606 LP  0  0  0  0  0  0  0  0  0  0  0  0  # atno 4314 bound_to 3832
    1.4609  -19.8676    8.8632 LP  0  0  0  0  0  0  0  0  0  0  0  0  # atno 4315 bound_to 3832
   -5.5079  -22.1887   10.6113 LP  0  0  0  0  0  0  0  0  0  0  0  0  # atno 4318 bound_to 3762
   -4.2456  -22.3580   11.6333 LP  0  0  0  0  0  0  0  0  0  0  0  0  # atno 4319 bound_to 3762
   -3.6347   -5.0345    8.5650 LP  0  0  0  0  0  0  0  0  0  0  0  0  # atno 4320 bound_to 2467
   -5.0281   -5.4547    9.3056 LP  0  0  0  0  0  0  0  0  0  0  0  0  # atno 4321 bound_to 2467

> <Gold.Score>
     Score     S(PLP)   S(hbond)     S(cho)   S(metal)  DE(clash)   DE(tors)     intcor
     54.17     -49.36       2.00       0.00       0.00       0.00       0.62       0.05

> <Gold.PLP.Fitness>
54.1665

> <Gold.PLP.PLP>
-49.3553

> <Gold.PLP.part.hbond>
-2.0000

> <Gold.PLP.part.metal>
0.0000

> <Gold.PLP.part.buried>
-7.1447

> <Gold.PLP.part.nonpolar>
-41.4910

> <Gold.PLP.part.repulsive>
0.2170

> <Gold.PLP.ligand.clash>
0.0000

> <Gold.PLP.ligand.torsion>
0.6184

> <Gold.PLP.Chemscore.Hbond>
2.0000

> <Gold.PLP.Chemscore.CHOScore>
0.0000

> <Gold.PLP.Chemscore.Metal>
0.0000

> <Gold.Chemscore.Hbonds>
donor molecule, donor type, donor heavy atom, donor atom, acceptor molecule, acceptor atom, score
      L1  H     4    30       P1  3712  1.00
      P1  H  2305  2313       L1    17  1.00

> <Gold.PLP.Chemscore.Internal.Correction>
0.0480

