#       Name:                EN300-18555_i001
#       Creating user name   fsindt
#       Creation time:       Tue Feb 28 04:06:48 2023


#       File generated by GOLD software.
#

@<TRIPOS>MOLECULE
EN300-18555_i001|acide_1|mol2|2798|dock14
    31    32     1
SMALL
USER_CHARGES


@<TRIPOS>ATOM
      1 C1          -1.0625 -10.5080  10.9820 C.3            1 <1>                0.0000
      2 C2          -0.8657 -11.9945  10.8310 C.2            1 <1>                0.0000
      3 O3          -1.2971 -12.7519  11.6742 O.2            1 <1>                0.0000
      4 N4          -0.2104 -12.4820   9.7590 N.am           1 <1>                0.0000
      5 C5          -0.0192 -13.9270   9.6122 C.3            1 <1>                0.0000
      6 C6           0.9954 -14.4151  10.6482 C.3            1 <1>                0.0000
      7 C7           0.3290 -15.3917  11.5827 C.2            1 <1>                0.0000
      8 C8          -0.9757 -15.7062  11.6113 C.2            1 <1>                0.0000
      9 N9          -1.2114 -16.6300  12.5929 N.pl3          1 <1>                0.0000
     10 C10         -0.0343 -16.9404  13.2361 C.ar           1 <1>                0.0000
     11 C11          0.2879 -17.7986  14.2822 C.ar           1 <1>                0.0000
     12 C12          1.5934 -17.8927  14.7128 C.ar           1 <1>                0.0000
     13 C13          2.5926 -17.1389  14.1131 C.ar           1 <1>                0.0000
     14 C14          2.2982 -16.2890  13.0842 C.ar           1 <1>                0.0000
     15 C15          0.9833 -16.1827  12.6278 C.ar           1 <1>                0.0000
     16 C16          0.4929 -14.2279   8.2272 C.2            1 <1>                0.0000
     17 O17         -0.2038 -13.9915   7.2550 O.co2          1 <1>                0.0000
     18 O18          1.6039 -14.7077   8.0789 O.co2          1 <1>               -1.0000
     19 H19         -1.6095 -10.3056  11.9029 H              1 <1>                0.0000
     20 H20         -0.0912 -10.0149  11.0206 H              1 <1>                0.0000
     21 H21         -1.6292 -10.1283  10.1319 H              1 <1>                0.0000
     22 H22         -0.9701 -14.4369   9.7667 H              1 <1>                0.0000
     23 H23          1.8254 -14.9064  10.1406 H              1 <1>                0.0000
     24 H24          1.3701 -13.5649  11.2183 H              1 <1>                0.0000
     25 H25         -1.7279 -15.2914  10.9568 H              1 <1>                0.0000
     26 H26         -0.4827 -18.3891  14.7555 H              1 <1>                0.0000
     27 H27          1.8415 -18.5594  15.5254 H              1 <1>                0.0000
     28 H28          3.6109 -17.2244  14.4627 H              1 <1>                0.0000
     29 H29          3.0810 -15.7053  12.6227 H              1 <1>                0.0000
     30 H30          0.1346 -11.8761   9.0846 H              1 <1>                0.0000
     31 H31         -2.0788 -17.0096  12.8040 H              1 <1>                0.0000
@<TRIPOS>BOND
    1    1    2 1     
    2    1   19 1     
    3    1   20 1     
    4    1   21 1     
    5    2    3 2     
    6    2    4 am    
    7    4    5 1     
    8    4   30 1     
    9    5    6 1     
   10    5   16 1     
   11    5   22 1     
   12    6    7 1     
   13    6   23 1     
   14    6   24 1     
   15    7    8 2     
   16    7   15 1     
   17    8    9 1     
   18    8   25 1     
   19    9   10 1     
   20    9   31 1     
   21   10   11 ar    
   22   10   15 ar    
   23   11   12 ar    
   24   11   26 1     
   25   12   13 ar    
   26   12   27 1     
   27   13   14 ar    
   28   13   28 1     
   29   14   15 ar    
   30   14   29 1     
   31   16   17 ar    
   32   16   18 ar    
@<TRIPOS>SUBSTRUCTURE
      1 ****           1
@<TRIPOS>SET
DONOR_HYDROGENS      STATIC     ATOMS    <user>   **** ""
2 30 31
ATOM$RED        STATIC     ATOMS    COLORGROUP SYSTEM
2 30 31
@<TRIPOS>COMMENT
> <Gold.Version>
2022.2.0

> <Gold.Id.Protein>
3pbl|protein|mol2

> <Gold.Protein.RotatedTorsions>
[ 1303 1298 1297 1294 ] final  -75.44 input  179.99 | X-H torsion
[ 2461 2456 2455 2452 ] final  132.66 input   30.03 | X-H torsion
[ 2515 2510 2509 2506 ] final   18.06 input  -89.99 | X-H torsion
[ 3721 3712 3711 3710 ] final  -66.85 input -179.91 | X-H torsion
[ 3841 3832 3831 3830 ] final -169.31 input -179.91 | X-H torsion
[ 3767 3762 3761 3758 ] final  -82.74 input  -89.99 | X-H torsion
[ 2472 2467 2466 2463 ] final -125.00 input  -89.97 | X-H torsion

> <Gold.Protein.ActiveResidues>
 VAL82   VAL86   LEU89   PHE106  VAL107  ASP110  VAL111  MET112  CYS114  THR115 
 CYS181  SER182  ILE183  PHE188  VAL189  ILE190  SER192  SER193  SER196  TRP342 
 PHE345  PHE346  HIS349  VAL350  TYR365  THR369  GLY372  TYR373 

> <Gold.Protein.RotatedAtoms>
    3.6513   -8.7762    3.8062 H   0  0  0  0  0  0  0  0  0  0  0  0  # atno 1303 bound_to 1298
    2.0410   -8.7948    8.1855 H   0  0  0  0  0  0  0  0  0  0  0  0  # atno 2461 bound_to 2456
   -4.5832   -5.4523    9.4327 H   0  0  0  0  0  0  0  0  0  0  0  0  # atno 2472 bound_to 2467
    2.4151   -7.4780    4.8290 H   0  0  0  0  0  0  0  0  0  0  0  0  # atno 2515 bound_to 2510
   -2.8511  -17.2411   14.7581 H   0  0  0  0  0  0  0  0  0  0  0  0  # atno 3721 bound_to 3712
   -5.2984  -21.9373   11.1196 H   0  0  0  0  0  0  0  0  0  0  0  0  # atno 3767 bound_to 3762
    2.8553  -19.9326    8.3698 H   0  0  0  0  0  0  0  0  0  0  0  0  # atno 3841 bound_to 3832
    4.9072   -9.0918    4.8008 LP  0  0  0  0  0  0  0  0  0  0  0  0  # atno 4297 bound_to 1298
    3.8039  -10.2535    4.4848 LP  0  0  0  0  0  0  0  0  0  0  0  0  # atno 4298 bound_to 1298
    1.2416   -7.9365    7.0490 LP  0  0  0  0  0  0  0  0  0  0  0  0  # atno 4299 bound_to 2456
    0.4555   -9.0770    7.9138 LP  0  0  0  0  0  0  0  0  0  0  0  0  # atno 4300 bound_to 2456
    2.7901   -9.0652    4.7509 LP  0  0  0  0  0  0  0  0  0  0  0  0  # atno 4301 bound_to 2510
    2.0916   -8.4563    6.0955 LP  0  0  0  0  0  0  0  0  0  0  0  0  # atno 4302 bound_to 2510
   -3.5245  -16.7025   13.4038 LP  0  0  0  0  0  0  0  0  0  0  0  0  # atno 4306 bound_to 3712
   -2.7116  -18.1186   13.4208 LP  0  0  0  0  0  0  0  0  0  0  0  0  # atno 4307 bound_to 3712
    2.5312  -21.1573    9.3553 LP  0  0  0  0  0  0  0  0  0  0  0  0  # atno 4314 bound_to 3832
    1.3998  -20.0228    9.0401 LP  0  0  0  0  0  0  0  0  0  0  0  0  # atno 4315 bound_to 3832
   -3.9435  -22.8126   11.3741 LP  0  0  0  0  0  0  0  0  0  0  0  0  # atno 4318 bound_to 3762
   -4.8857  -23.1249   10.0775 LP  0  0  0  0  0  0  0  0  0  0  0  0  # atno 4319 bound_to 3762
   -5.3790   -5.0465    8.0658 LP  0  0  0  0  0  0  0  0  0  0  0  0  # atno 4320 bound_to 2467
   -3.7548   -4.8948    8.1408 LP  0  0  0  0  0  0  0  0  0  0  0  0  # atno 4321 bound_to 2467

> <Gold.Score>
     Score     S(PLP)   S(hbond)     S(cho)   S(metal)  DE(clash)   DE(tors)     intcor
     45.77     -45.19       0.80       0.00       0.00       0.00       0.93       0.05

> <Gold.PLP.Fitness>
45.7715

> <Gold.PLP.PLP>
-45.1902

> <Gold.PLP.part.hbond>
-1.4636

> <Gold.PLP.part.metal>
0.0000

> <Gold.PLP.part.buried>
-7.4124

> <Gold.PLP.part.nonpolar>
-36.7029

> <Gold.PLP.part.repulsive>
0.3103

> <Gold.PLP.ligand.clash>
0.0000

> <Gold.PLP.ligand.torsion>
0.9333

> <Gold.PLP.Chemscore.Hbond>
0.8000

> <Gold.PLP.Chemscore.CHOScore>
0.0000

> <Gold.PLP.Chemscore.Metal>
0.0000

> <Gold.Chemscore.Hbonds>
donor molecule, donor type, donor heavy atom, donor atom, acceptor molecule, acceptor atom, score
      L1  H     9    31       P1  3712  0.80

> <Gold.PLP.Chemscore.Internal.Correction>
0.0480

