#       Name:                EN300-18555_i001
#       Creating user name   fsindt
#       Creation time:       Tue Feb 28 04:06:36 2023


#       File generated by GOLD software.
#

@<TRIPOS>MOLECULE
EN300-18555_i001|acide_1|mol2|2798|dock1
    31    32     1
SMALL
USER_CHARGES


@<TRIPOS>ATOM
      1 C1           0.7870 -12.5483   6.7503 C.3            1 <1>                0.0000
      2 C2           0.5450 -12.1678   8.1883 C.2            1 <1>                0.0000
      3 O3           0.9618 -11.1116   8.6144 O.2            1 <1>                0.0000
      4 N4          -0.1346 -13.0012   9.0006 N.am           1 <1>                0.0000
      5 C5          -0.3699 -12.6313  10.3985 C.3            1 <1>                0.0000
      6 C6          -0.7469 -13.8791  11.1997 C.3            1 <1>                0.0000
      7 C7           0.4978 -14.6662  11.5190 C.2            1 <1>                0.0000
      8 C8           1.6299 -14.6972  10.7983 C.2            1 <1>                0.0000
      9 N9           2.5426 -15.5214  11.3983 N.pl3          1 <1>                0.0000
     10 C10          2.0066 -16.0544  12.5491 C.ar           1 <1>                0.0000
     11 C11          2.4914 -16.9296  13.5153 C.ar           1 <1>                0.0000
     12 C12          1.6924 -17.2834  14.5808 C.ar           1 <1>                0.0000
     13 C13          0.4065 -16.7753  14.7007 C.ar           1 <1>                0.0000
     14 C14         -0.0901 -15.9145  13.7626 C.ar           1 <1>                0.0000
     15 C15          0.7043 -15.5376  12.6784 C.ar           1 <1>                0.0000
     16 C16         -1.4933 -11.6295  10.4708 C.2            1 <1>                0.0000
     17 O17         -1.7839 -11.1154  11.5375 O.co2          1 <1>                0.0000
     18 O18         -2.1117 -11.3331   9.4626 O.co2          1 <1>               -1.0000
     19 H19          1.3484 -11.7564   6.2545 H              1 <1>                0.0000
     20 H20          1.3566 -13.4768   6.7110 H              1 <1>                0.0000
     21 H21         -0.1689 -12.6869   6.2452 H              1 <1>                0.0000
     22 H22          0.5362 -12.1919  10.8155 H              1 <1>                0.0000
     23 H23         -1.2364 -13.5813  12.1269 H              1 <1>                0.0000
     24 H24         -1.4264 -14.4965  10.6121 H              1 <1>                0.0000
     25 H25          1.7956 -14.1525   9.8806 H              1 <1>                0.0000
     26 H26          3.4906 -17.3306  13.4307 H              1 <1>                0.0000
     27 H27          2.0706 -17.9634  15.3298 H              1 <1>                0.0000
     28 H28         -0.2067 -17.0628  15.5419 H              1 <1>                0.0000
     29 H29         -1.0919 -15.5234  13.8623 H              1 <1>                0.0000
     30 H30         -0.4680 -13.8460   8.6598 H              1 <1>                0.0000
     31 H31          3.4345 -15.7031  11.0628 H              1 <1>                0.0000
@<TRIPOS>BOND
    1    1    2 1     
    2    1   19 1     
    3    1   20 1     
    4    1   21 1     
    5    2    3 2     
    6    2    4 am    
    7    4    5 1     
    8    4   30 1     
    9    5    6 1     
   10    5   16 1     
   11    5   22 1     
   12    6    7 1     
   13    6   23 1     
   14    6   24 1     
   15    7    8 2     
   16    7   15 1     
   17    8    9 1     
   18    8   25 1     
   19    9   10 1     
   20    9   31 1     
   21   10   11 ar    
   22   10   15 ar    
   23   11   12 ar    
   24   11   26 1     
   25   12   13 ar    
   26   12   27 1     
   27   13   14 ar    
   28   13   28 1     
   29   14   15 ar    
   30   14   29 1     
   31   16   17 ar    
   32   16   18 ar    
@<TRIPOS>SUBSTRUCTURE
      1 ****           1
@<TRIPOS>SET
DONOR_HYDROGENS      STATIC     ATOMS    <user>   **** ""
2 30 31
ATOM$RED        STATIC     ATOMS    COLORGROUP SYSTEM
2 30 31
@<TRIPOS>COMMENT
> <Gold.Version>
2022.2.0

> <Gold.Id.Protein>
3pbl|protein|mol2

> <Gold.Protein.RotatedTorsions>
[ 1303 1298 1297 1294 ] final   66.13 input  179.99 | X-H torsion
[ 2461 2456 2455 2452 ] final -154.75 input   30.03 | X-H torsion
[ 2515 2510 2509 2506 ] final  -26.09 input  -89.99 | X-H torsion
[ 3721 3712 3711 3710 ] final   80.52 input -179.91 | X-H torsion
[ 3841 3832 3831 3830 ] final  -79.60 input -179.91 | X-H torsion
[ 3767 3762 3761 3758 ] final    5.06 input  -89.99 | X-H torsion
[ 2472 2467 2466 2463 ] final -168.18 input  -89.97 | X-H torsion

> <Gold.Protein.ActiveResidues>
 VAL82   VAL86   LEU89   PHE106  VAL107  ASP110  VAL111  MET112  CYS114  THR115 
 CYS181  SER182  ILE183  PHE188  VAL189  ILE190  SER192  SER193  SER196  TRP342 
 PHE345  PHE346  HIS349  VAL350  TYR365  THR369  GLY372  TYR373 

> <Gold.Protein.RotatedAtoms>
    4.0924  -10.2585    4.6879 H   0  0  0  0  0  0  0  0  0  0  0  0  # atno 1303 bound_to 1298
    1.0506   -9.2886    8.3331 H   0  0  0  0  0  0  0  0  0  0  0  0  # atno 2461 bound_to 2456
   -5.2219   -5.4254    9.1631 H   0  0  0  0  0  0  0  0  0  0  0  0  # atno 2472 bound_to 2467
    2.7008   -7.9643    4.4004 H   0  0  0  0  0  0  0  0  0  0  0  0  # atno 2515 bound_to 2510
   -2.7167  -17.7217   13.1722 H   0  0  0  0  0  0  0  0  0  0  0  0  # atno 3721 bound_to 3712
   -5.2753  -22.7785   10.1187 H   0  0  0  0  0  0  0  0  0  0  0  0  # atno 3767 bound_to 3762
    1.7501  -19.6653    8.8148 H   0  0  0  0  0  0  0  0  0  0  0  0  # atno 3841 bound_to 3832
    3.4501   -9.0646    3.7777 LP  0  0  0  0  0  0  0  0  0  0  0  0  # atno 4297 bound_to 1298
    4.8197   -8.7979    4.6259 LP  0  0  0  0  0  0  0  0  0  0  0  0  # atno 4298 bound_to 1298
    2.1180   -8.2479    7.6660 LP  0  0  0  0  0  0  0  0  0  0  0  0  # atno 4299 bound_to 2456
    0.5691   -8.2718    7.1492 LP  0  0  0  0  0  0  0  0  0  0  0  0  # atno 4300 bound_to 2456
    2.5589   -9.2519    5.3943 LP  0  0  0  0  0  0  0  0  0  0  0  0  # atno 4301 bound_to 2510
    2.0369   -7.7831    5.8810 LP  0  0  0  0  0  0  0  0  0  0  0  0  # atno 4302 bound_to 2510
   -2.8262  -17.7086   14.7739 LP  0  0  0  0  0  0  0  0  0  0  0  0  # atno 4306 bound_to 3712
   -3.5650  -16.5577   13.8816 LP  0  0  0  0  0  0  0  0  0  0  0  0  # atno 4307 bound_to 3712
    3.0859  -20.4306    8.3611 LP  0  0  0  0  0  0  0  0  0  0  0  0  # atno 4314 bound_to 3832
    2.1218  -21.0583    9.5201 LP  0  0  0  0  0  0  0  0  0  0  0  0  # atno 4315 bound_to 3832
   -4.9181  -21.9475   11.4784 LP  0  0  0  0  0  0  0  0  0  0  0  0  # atno 4318 bound_to 3762
   -3.9342  -23.1491   10.9737 LP  0  0  0  0  0  0  0  0  0  0  0  0  # atno 4319 bound_to 3762
   -4.8333   -4.8493    7.6854 LP  0  0  0  0  0  0  0  0  0  0  0  0  # atno 4320 bound_to 2467
   -3.6619   -5.1188    8.7908 LP  0  0  0  0  0  0  0  0  0  0  0  0  # atno 4321 bound_to 2467

> <Gold.Score>
     Score     S(PLP)   S(hbond)     S(cho)   S(metal)  DE(clash)   DE(tors)     intcor
     54.86     -53.45       1.00       0.00       0.00       0.00       0.84       0.08

> <Gold.PLP.Fitness>
54.8579

> <Gold.PLP.PLP>
-53.4519

> <Gold.PLP.part.hbond>
-2.0000

> <Gold.PLP.part.metal>
0.0000

> <Gold.PLP.part.buried>
-7.9919

> <Gold.PLP.part.nonpolar>
-44.5519

> <Gold.PLP.part.repulsive>
0.0644

> <Gold.PLP.ligand.clash>
0.0000

> <Gold.PLP.ligand.torsion>
0.8380

> <Gold.PLP.Chemscore.Hbond>
1.0000

> <Gold.PLP.Chemscore.CHOScore>
0.0000

> <Gold.PLP.Chemscore.Metal>
0.0000

> <Gold.Chemscore.Hbonds>
donor molecule, donor type, donor heavy atom, donor atom, acceptor molecule, acceptor atom, score
      P1  H  2456  2461       L1     3  1.00

> <Gold.PLP.Chemscore.Internal.Correction>
0.0819

