#       Name:                EN300-18555_i001
#       Creating user name   fsindt
#       Creation time:       Tue Feb 28 04:06:46 2023


#       File generated by GOLD software.
#

@<TRIPOS>MOLECULE
EN300-18555_i001|acide_1|mol2|2798|dock12
    31    32     1
SMALL
USER_CHARGES


@<TRIPOS>ATOM
      1 C1          -4.3451  -9.8908   9.7459 C.3            1 <1>                0.0000
      2 C2          -2.9573 -10.4779   9.7291 C.2            1 <1>                0.0000
      3 O3          -2.1929 -10.2018   8.8289 O.2            1 <1>                0.0000
      4 N4          -2.5656 -11.3099  10.7143 N.am           1 <1>                0.0000
      5 C5          -1.2165 -11.8807  10.6980 C.3            1 <1>                0.0000
      6 C6          -0.9980 -12.7094  11.9655 C.3            1 <1>                0.0000
      7 C7          -0.3546 -14.0228  11.6022 C.2            1 <1>                0.0000
      8 C8           0.0760 -14.3916  10.3854 C.2            1 <1>                0.0000
      9 N9           0.6041 -15.6527  10.4398 N.pl3          1 <1>                0.0000
     10 C10          0.5243 -16.1386  11.7256 C.ar           1 <1>                0.0000
     11 C11          0.9044 -17.3363  12.3220 C.ar           1 <1>                0.0000
     12 C12          0.6863 -17.5295  13.6688 C.ar           1 <1>                0.0000
     13 C13          0.0902 -16.5404  14.4384 C.ar           1 <1>                0.0000
     14 C14         -0.2916 -15.3563  13.8727 C.ar           1 <1>                0.0000
     15 C15         -0.0744 -15.1368  12.5114 C.ar           1 <1>                0.0000
     16 C16         -0.2011 -10.7685  10.6438 C.2            1 <1>                0.0000
     17 O17         -0.2312  -9.8747  11.4725 O.co2          1 <1>                0.0000
     18 O18          0.6505 -10.7625   9.7713 O.co2          1 <1>               -1.0000
     19 H19         -4.4781  -9.2478   8.8757 H              1 <1>                0.0000
     20 H20         -5.0803 -10.6950   9.7191 H              1 <1>                0.0000
     21 H21         -4.4807  -9.3047  10.6548 H              1 <1>                0.0000
     22 H22         -1.1028 -12.5195   9.8222 H              1 <1>                0.0000
     23 H23         -0.3482 -12.1632  12.6492 H              1 <1>                0.0000
     24 H24         -1.9577 -12.8961  12.4474 H              1 <1>                0.0000
     25 H25          0.0145 -13.7831   9.4953 H              1 <1>                0.0000
     26 H26          1.3687 -18.1123  11.7315 H              1 <1>                0.0000
     27 H27          0.9819 -18.4603  14.1300 H              1 <1>                0.0000
     28 H28         -0.0736 -16.7078  15.4926 H              1 <1>                0.0000
     29 H29         -0.7552 -14.5913  14.4779 H              1 <1>                0.0000
     30 H30         -3.1770 -11.5308  11.4343 H              1 <1>                0.0000
     31 H31          0.9789 -16.1329   9.6849 H              1 <1>                0.0000
@<TRIPOS>BOND
    1    1    2 1     
    2    1   19 1     
    3    1   20 1     
    4    1   21 1     
    5    2    3 2     
    6    2    4 am    
    7    4    5 1     
    8    4   30 1     
    9    5    6 1     
   10    5   16 1     
   11    5   22 1     
   12    6    7 1     
   13    6   23 1     
   14    6   24 1     
   15    7    8 2     
   16    7   15 1     
   17    8    9 1     
   18    8   25 1     
   19    9   10 1     
   20    9   31 1     
   21   10   11 ar    
   22   10   15 ar    
   23   11   12 ar    
   24   11   26 1     
   25   12   13 ar    
   26   12   27 1     
   27   13   14 ar    
   28   13   28 1     
   29   14   15 ar    
   30   14   29 1     
   31   16   17 ar    
   32   16   18 ar    
@<TRIPOS>SUBSTRUCTURE
      1 ****           1
@<TRIPOS>SET
DONOR_HYDROGENS      STATIC     ATOMS    <user>   **** ""
2 30 31
ATOM$RED        STATIC     ATOMS    COLORGROUP SYSTEM
2 30 31
@<TRIPOS>COMMENT
> <Gold.Version>
2022.2.0

> <Gold.Id.Protein>
3pbl|protein|mol2

> <Gold.Protein.RotatedTorsions>
[ 1303 1298 1297 1294 ] final  -98.32 input  179.99 | X-H torsion
[ 2461 2456 2455 2452 ] final -151.45 input   30.03 | X-H torsion
[ 2515 2510 2509 2506 ] final  139.87 input  -89.99 | X-H torsion
[ 3721 3712 3711 3710 ] final  151.05 input -179.91 | X-H torsion
[ 3841 3832 3831 3830 ] final  -54.46 input -179.91 | X-H torsion
[ 3767 3762 3761 3758 ] final  147.20 input  -89.99 | X-H torsion
[ 2472 2467 2466 2463 ] final  -52.70 input  -89.97 | X-H torsion

> <Gold.Protein.ActiveResidues>
 VAL82   VAL86   LEU89   PHE106  VAL107  ASP110  VAL111  MET112  CYS114  THR115 
 CYS181  SER182  ILE183  PHE188  VAL189  ILE190  SER192  SER193  SER196  TRP342 
 PHE345  PHE346  HIS349  VAL350  TYR365  THR369  GLY372  TYR373 

> <Gold.Protein.RotatedAtoms>
    3.9357   -8.5625    3.9209 H   0  0  0  0  0  0  0  0  0  0  0  0  # atno 1303 bound_to 1298
    0.9994   -9.2883    8.3149 H   0  0  0  0  0  0  0  0  0  0  0  0  # atno 2461 bound_to 2456
   -3.6823   -5.1457    8.8570 H   0  0  0  0  0  0  0  0  0  0  0  0  # atno 2472 bound_to 2467
    2.0988   -8.4851    6.0934 H   0  0  0  0  0  0  0  0  0  0  0  0  # atno 2515 bound_to 2510
   -3.2113  -16.8531   13.2075 H   0  0  0  0  0  0  0  0  0  0  0  0  # atno 3721 bound_to 3712
   -3.9130  -22.9291   11.2606 H   0  0  0  0  0  0  0  0  0  0  0  0  # atno 3767 bound_to 3762
    1.5895  -19.8637    9.0919 H   0  0  0  0  0  0  0  0  0  0  0  0  # atno 3841 bound_to 3832
    4.8795   -9.4456    4.9188 LP  0  0  0  0  0  0  0  0  0  0  0  0  # atno 4297 bound_to 1298
    3.5470  -10.1135    4.2520 LP  0  0  0  0  0  0  0  0  0  0  0  0  # atno 4298 bound_to 1298
    2.1325   -8.2823    7.7054 LP  0  0  0  0  0  0  0  0  0  0  0  0  # atno 4299 bound_to 2456
    0.6057   -8.2378    7.1280 LP  0  0  0  0  0  0  0  0  0  0  0  0  # atno 4300 bound_to 2456
    2.4022   -7.4670    4.8535 LP  0  0  0  0  0  0  0  0  0  0  0  0  # atno 4301 bound_to 2510
    2.7958   -9.0469    4.7279 LP  0  0  0  0  0  0  0  0  0  0  0  0  # atno 4302 bound_to 2510
   -2.6202  -18.2171   13.8141 LP  0  0  0  0  0  0  0  0  0  0  0  0  # atno 4306 bound_to 3712
   -3.2000  -17.0521   14.8007 LP  0  0  0  0  0  0  0  0  0  0  0  0  # atno 4307 bound_to 3712
    2.8937  -20.1041    8.1878 LP  0  0  0  0  0  0  0  0  0  0  0  0  # atno 4314 bound_to 3832
    2.4995  -21.1556    9.3734 LP  0  0  0  0  0  0  0  0  0  0  0  0  # atno 4315 bound_to 3832
   -5.0196  -23.0291   10.0639 LP  0  0  0  0  0  0  0  0  0  0  0  0  # atno 4318 bound_to 3762
   -5.1945  -21.9170   11.2468 LP  0  0  0  0  0  0  0  0  0  0  0  0  # atno 4319 bound_to 3762
   -5.2732   -5.4115    9.1111 LP  0  0  0  0  0  0  0  0  0  0  0  0  # atno 4320 bound_to 2467
   -4.7612   -4.8363    7.6711 LP  0  0  0  0  0  0  0  0  0  0  0  0  # atno 4321 bound_to 2467

> <Gold.Score>
     Score     S(PLP)   S(hbond)     S(cho)   S(metal)  DE(clash)   DE(tors)     intcor
     50.53     -47.78       1.41       0.00       0.00       0.00       0.76       0.05

> <Gold.PLP.Fitness>
50.5268

> <Gold.PLP.PLP>
-47.7847

> <Gold.PLP.part.hbond>
-2.0000

> <Gold.PLP.part.metal>
0.0000

> <Gold.PLP.part.buried>
-3.3918

> <Gold.PLP.part.nonpolar>
-45.2729

> <Gold.PLP.part.repulsive>
0.1746

> <Gold.PLP.ligand.clash>
0.0000

> <Gold.PLP.ligand.torsion>
0.7634

> <Gold.PLP.Chemscore.Hbond>
1.4070

> <Gold.PLP.Chemscore.CHOScore>
0.0000

> <Gold.PLP.Chemscore.Metal>
0.0000

> <Gold.Chemscore.Hbonds>
donor molecule, donor type, donor heavy atom, donor atom, acceptor molecule, acceptor atom, score
      L1  H     9    31       P1  1227  0.42
      P1  H  2456  2461       L1    18  0.99

> <Gold.PLP.Chemscore.Internal.Correction>
0.0480

