#       Name:                EN300-18555_i001
#       Creating user name   fsindt
#       Creation time:       Tue Feb 28 04:06:35 2023


#       File generated by GOLD software.
#

@<TRIPOS>MOLECULE
EN300-18555_i001
    31    32     1
SMALL
USER_CHARGES


@<TRIPOS>ATOM
      1 C1           3.0613   2.6357  -0.8392 C.3            1 <1>                0.0000
      2 C2           2.6062   1.2014  -0.9210 C.2            1 <1>                0.0000
      3 O3           2.6351   0.6157  -1.9826 O.2            1 <1>                0.0000
      4 N4           2.1671   0.5696   0.1855 N.am           1 <1>                0.0000
      5 C5           1.7247  -0.8247   0.1060 C.3            1 <1>                0.0000
      6 C6           0.7388  -1.1124   1.2401 C.3            1 <1>                0.0000
      7 C7          -0.5068  -0.2871   1.0444 C.2            1 <1>                0.0000
      8 C8          -0.7684   0.9075   1.5981 C.2            1 <1>                0.0000
      9 N9          -1.9963   1.3522   1.1896 N.pl3          1 <1>                0.0000
     10 C10         -2.5694   0.4313   0.3415 C.ar           1 <1>                0.0000
     11 C11         -3.7785   0.3836  -0.3443 C.ar           1 <1>                0.0000
     12 C12         -4.0724  -0.7035  -1.1384 C.ar           1 <1>                0.0000
     13 C13         -3.1735  -1.7537  -1.2616 C.ar           1 <1>                0.0000
     14 C14         -1.9801  -1.7277  -0.5962 C.ar           1 <1>                0.0000
     15 C15         -1.6591  -0.6333   0.2087 C.ar           1 <1>                0.0000
     16 C16          2.9167  -1.7380   0.2329 C.2            1 <1>                0.0000
     17 O17          3.8842  -1.3900   0.8881 O.co2          1 <1>                0.0000
     18 O18          2.9135  -2.8248  -0.3197 O.co2          1 <1>               -1.0000
     19 H19          3.3785   2.9731  -1.8260 H              1 <1>                0.0000
     20 H20          2.2382   3.2588  -0.4895 H              1 <1>                0.0000
     21 H21          3.8965   2.7128  -0.1431 H              1 <1>                0.0000
     22 H22          1.2357  -0.9966  -0.8528 H              1 <1>                0.0000
     23 H23          0.4780  -2.1707   1.2351 H              1 <1>                0.0000
     24 H24          1.1982  -0.8559   2.1947 H              1 <1>                0.0000
     25 H25         -0.1077   1.4387   2.2671 H              1 <1>                0.0000
     26 H26         -4.4847   1.1958  -0.2546 H              1 <1>                0.0000
     27 H27         -5.0119  -0.7388  -1.6699 H              1 <1>                0.0000
     28 H28         -3.4193  -2.5984  -1.8880 H              1 <1>                0.0000
     29 H29         -1.2857  -2.5488  -0.6966 H              1 <1>                0.0000
     30 H30          2.1440   1.0381   1.0346 H              1 <1>                0.0000
     31 H31         -2.4025   2.1913   1.4577 H              1 <1>                0.0000
@<TRIPOS>BOND
    1    1    2 1     
    2    1   19 1     
    3    1   20 1     
    4    1   21 1     
    5    2    3 2     
    6    2    4 am    
    7    4    5 1     
    8    4   30 1     
    9    5    6 1     
   10    5   16 1     
   11    5   22 1     
   12    6    7 1     
   13    6   23 1     
   14    6   24 1     
   15    7    8 2     
   16    7   15 1     
   17    8    9 1     
   18    8   25 1     
   19    9   10 1     
   20    9   31 1     
   21   10   11 ar    
   22   10   15 ar    
   23   11   12 ar    
   24   11   26 1     
   25   12   13 ar    
   26   12   27 1     
   27   13   14 ar    
   28   13   28 1     
   29   14   15 ar    
   30   14   29 1     
   31   16   17 ar    
   32   16   18 ar    
@<TRIPOS>SUBSTRUCTURE
      1 ****           1
@<TRIPOS>SET
DONOR_HYDROGENS      STATIC     ATOMS    <user>   **** ""
2 30 31
ATOM$RED        STATIC     ATOMS    COLORGROUP SYSTEM
2 30 31
