#       Name:                EN300-18555_i001
#       Creating user name   fsindt
#       Creation time:       Tue Feb 28 04:06:43 2023


#       File generated by GOLD software.
#

@<TRIPOS>MOLECULE
EN300-18555_i001|acide_1|mol2|2798|dock9
    31    32     1
SMALL
USER_CHARGES


@<TRIPOS>ATOM
      1 C1          -0.2058 -20.5016  13.7396 C.3            1 <1>                0.0000
      2 C2          -0.3263 -18.9995  13.7322 C.2            1 <1>                0.0000
      3 O3          -0.8336 -18.4272  14.6735 O.2            1 <1>                0.0000
      4 N4           0.1297 -18.2921  12.6796 N.am           1 <1>                0.0000
      5 C5           0.0126 -16.8318  12.6724 C.3            1 <1>                0.0000
      6 C6           0.5923 -16.2801  11.3683 C.3            1 <1>                0.0000
      7 C7           0.0602 -14.8904  11.1303 C.2            1 <1>                0.0000
      8 C8          -0.7000 -14.1715  11.9713 C.2            1 <1>                0.0000
      9 N9          -0.9897 -12.9555  11.4146 N.pl3          1 <1>                0.0000
     10 C10         -0.4081 -12.8598  10.1702 C.ar           1 <1>                0.0000
     11 C11         -0.3844 -11.8652   9.1983 C.ar           1 <1>                0.0000
     12 C12          0.3052 -12.0728   8.0235 C.ar           1 <1>                0.0000
     13 C13          0.9775 -13.2659   7.7987 C.ar           1 <1>                0.0000
     14 C14          0.9668 -14.2568   8.7399 C.ar           1 <1>                0.0000
     15 C15          0.2798 -14.0653   9.9399 C.ar           1 <1>                0.0000
     16 C16          0.7733 -16.2610  13.8414 C.2            1 <1>                0.0000
     17 O17          1.9714 -16.4615  13.9454 O.co2          1 <1>                0.0000
     18 O18          0.1906 -15.5988  14.6831 O.co2          1 <1>               -1.0000
     19 H19         -0.6257 -20.8953  14.6653 H              1 <1>                0.0000
     20 H20         -0.7497 -20.9141  12.8898 H              1 <1>                0.0000
     21 H21          0.8451 -20.7822  13.6692 H              1 <1>                0.0000
     22 H22         -1.0377 -16.5512  12.7504 H              1 <1>                0.0000
     23 H23          1.6793 -16.2457  11.4398 H              1 <1>                0.0000
     24 H24          0.3029 -16.9267  10.5399 H              1 <1>                0.0000
     25 H25         -1.0338 -14.5038  12.9431 H              1 <1>                0.0000
     26 H26         -0.9048 -10.9334   9.3637 H              1 <1>                0.0000
     27 H27          0.3222 -11.2994   7.2699 H              1 <1>                0.0000
     28 H28          1.5131 -13.4126   6.8725 H              1 <1>                0.0000
     29 H29          1.4920 -15.1828   8.5578 H              1 <1>                0.0000
     30 H30          0.5355 -18.7498  11.9267 H              1 <1>                0.0000
     31 H31         -1.5251 -12.2640  11.8342 H              1 <1>                0.0000
@<TRIPOS>BOND
    1    1    2 1     
    2    1   19 1     
    3    1   20 1     
    4    1   21 1     
    5    2    3 2     
    6    2    4 am    
    7    4    5 1     
    8    4   30 1     
    9    5    6 1     
   10    5   16 1     
   11    5   22 1     
   12    6    7 1     
   13    6   23 1     
   14    6   24 1     
   15    7    8 2     
   16    7   15 1     
   17    8    9 1     
   18    8   25 1     
   19    9   10 1     
   20    9   31 1     
   21   10   11 ar    
   22   10   15 ar    
   23   11   12 ar    
   24   11   26 1     
   25   12   13 ar    
   26   12   27 1     
   27   13   14 ar    
   28   13   28 1     
   29   14   15 ar    
   30   14   29 1     
   31   16   17 ar    
   32   16   18 ar    
@<TRIPOS>SUBSTRUCTURE
      1 ****           1
@<TRIPOS>SET
DONOR_HYDROGENS      STATIC     ATOMS    <user>   **** ""
2 30 31
ATOM$RED        STATIC     ATOMS    COLORGROUP SYSTEM
2 30 31
@<TRIPOS>COMMENT
> <Gold.Version>
2022.2.0

> <Gold.Id.Protein>
3pbl|protein|mol2

> <Gold.Protein.RotatedTorsions>
[ 1303 1298 1297 1294 ] final -106.01 input  179.99 | X-H torsion
[ 2461 2456 2455 2452 ] final -123.25 input   30.03 | X-H torsion
[ 2515 2510 2509 2506 ] final  -65.29 input  -89.99 | X-H torsion
[ 3721 3712 3711 3710 ] final   14.08 input -179.91 | X-H torsion
[ 3841 3832 3831 3830 ] final  -30.92 input -179.91 | X-H torsion
[ 3767 3762 3761 3758 ] final   39.57 input  -89.99 | X-H torsion
[ 2472 2467 2466 2463 ] final  -14.06 input  -89.97 | X-H torsion

> <Gold.Protein.ActiveResidues>
 VAL82   VAL86   LEU89   PHE106  VAL107  ASP110  VAL111  MET112  CYS114  THR115 
 CYS181  SER182  ILE183  PHE188  VAL189  ILE190  SER192  SER193  SER196  TRP342 
 PHE345  PHE346  HIS349  VAL350  TYR365  THR369  GLY372  TYR373 

> <Gold.Protein.RotatedAtoms>
    4.0404   -8.5182    3.9765 H   0  0  0  0  0  0  0  0  0  0  0  0  # atno 1303 bound_to 1298
    0.6120   -9.1948    8.0863 H   0  0  0  0  0  0  0  0  0  0  0  0  # atno 2461 bound_to 2456
   -3.6926   -4.9352    8.2697 H   0  0  0  0  0  0  0  0  0  0  0  0  # atno 2472 bound_to 2467
    2.8308   -8.5830    4.4084 H   0  0  0  0  0  0  0  0  0  0  0  0  # atno 2515 bound_to 2510
   -2.4701  -18.0174   14.0396 H   0  0  0  0  0  0  0  0  0  0  0  0  # atno 3721 bound_to 3712
   -4.8536  -23.1446   10.0835 H   0  0  0  0  0  0  0  0  0  0  0  0  # atno 3767 bound_to 3762
    1.5691  -20.1201    9.3340 H   0  0  0  0  0  0  0  0  0  0  0  0  # atno 3841 bound_to 3832
    4.8426   -9.5648    4.9394 LP  0  0  0  0  0  0  0  0  0  0  0  0  # atno 4297 bound_to 1298
    3.4792  -10.0386    4.1758 LP  0  0  0  0  0  0  0  0  0  0  0  0  # atno 4298 bound_to 1298
    2.1347   -8.6069    8.0304 LP  0  0  0  0  0  0  0  0  0  0  0  0  # atno 4299 bound_to 2456
    0.9908   -8.0067    7.0316 LP  0  0  0  0  0  0  0  0  0  0  0  0  # atno 4300 bound_to 2456
    2.2882   -8.9790    5.8966 LP  0  0  0  0  0  0  0  0  0  0  0  0  # atno 4301 bound_to 2510
    2.1776   -7.4370    5.3706 LP  0  0  0  0  0  0  0  0  0  0  0  0  # atno 4302 bound_to 2510
   -3.3524  -16.8127   14.6296 LP  0  0  0  0  0  0  0  0  0  0  0  0  # atno 4306 bound_to 3712
   -3.3235  -17.1122   13.0246 LP  0  0  0  0  0  0  0  0  0  0  0  0  # atno 4307 bound_to 3712
    2.6036  -19.8474    8.1376 LP  0  0  0  0  0  0  0  0  0  0  0  0  # atno 4314 bound_to 3832
    2.8132  -21.1162    9.1439 LP  0  0  0  0  0  0  0  0  0  0  0  0  # atno 4315 bound_to 3832
   -5.3202  -21.9458   11.0895 LP  0  0  0  0  0  0  0  0  0  0  0  0  # atno 4318 bound_to 3762
   -3.9537  -22.7849   11.3978 LP  0  0  0  0  0  0  0  0  0  0  0  0  # atno 4319 bound_to 3762
   -4.7307   -5.4614    9.4151 LP  0  0  0  0  0  0  0  0  0  0  0  0  # atno 4320 bound_to 2467
   -5.2935   -4.9969    7.9543 LP  0  0  0  0  0  0  0  0  0  0  0  0  # atno 4321 bound_to 2467

> <Gold.Score>
     Score     S(PLP)   S(hbond)     S(cho)   S(metal)  DE(clash)   DE(tors)     intcor
     48.59     -42.98       2.00       0.00       0.00       0.00       0.22       0.05

> <Gold.PLP.Fitness>
48.5912

> <Gold.PLP.PLP>
-42.9753

> <Gold.PLP.part.hbond>
-2.0000

> <Gold.PLP.part.metal>
0.0000

> <Gold.PLP.part.buried>
-4.5667

> <Gold.PLP.part.nonpolar>
-37.1078

> <Gold.PLP.part.repulsive>
0.1949

> <Gold.PLP.ligand.clash>
0.0000

> <Gold.PLP.ligand.torsion>
0.2160

> <Gold.PLP.Chemscore.Hbond>
2.0000

> <Gold.PLP.Chemscore.CHOScore>
0.0000

> <Gold.PLP.Chemscore.Metal>
0.0000

> <Gold.Chemscore.Hbonds>
donor molecule, donor type, donor heavy atom, donor atom, acceptor molecule, acceptor atom, score
      P1  H  2305  2313       L1    18  1.00
      P1  H  3712  3721       L1     3  1.00

> <Gold.PLP.Chemscore.Internal.Correction>
0.0480

