#       Name:                EN300-18555_i001
#       Creating user name   fsindt
#       Creation time:       Tue Feb 28 04:06:47 2023


#       File generated by GOLD software.
#

@<TRIPOS>MOLECULE
EN300-18555_i001|acide_1|mol2|2798|dock13
    31    32     1
SMALL
USER_CHARGES


@<TRIPOS>ATOM
      1 C1           1.0955 -19.9879  12.0057 C.3            1 <1>                0.0000
      2 C2           0.3654 -18.6986  12.2812 C.2            1 <1>                0.0000
      3 O3          -0.7129 -18.7191  12.8359 O.2            1 <1>                0.0000
      4 N4           0.9107 -17.5230  11.9112 N.am           1 <1>                0.0000
      5 C5           0.2010 -16.2698  12.1790 C.3            1 <1>                0.0000
      6 C6           1.0739 -15.0880  11.7519 C.3            1 <1>                0.0000
      7 C7           0.4345 -14.3888  10.5801 C.2            1 <1>                0.0000
      8 C8           0.4799 -14.7780   9.2961 C.2            1 <1>                0.0000
      9 N9          -0.2159 -13.8950   8.5161 N.pl3          1 <1>                0.0000
     10 C10         -0.7395 -12.8906   9.2988 C.ar           1 <1>                0.0000
     11 C11         -1.5108 -11.7662   9.0245 C.ar           1 <1>                0.0000
     12 C12         -1.8885 -10.9282  10.0511 C.ar           1 <1>                0.0000
     13 C13         -1.5067 -11.1942  11.3587 C.ar           1 <1>                0.0000
     14 C14         -0.7484 -12.2930  11.6506 C.ar           1 <1>                0.0000
     15 C15         -0.3599 -13.1589  10.6268 C.ar           1 <1>                0.0000
     16 C16         -0.0980 -16.1667  13.6524 C.2            1 <1>                0.0000
     17 O17         -1.2295 -16.3664  14.0602 O.co2          1 <1>                0.0000
     18 O18          0.7916 -15.8837  14.4366 O.co2          1 <1>               -1.0000
     19 H19          0.5039 -20.8262  12.3736 H              1 <1>                0.0000
     20 H20          1.2501 -20.0958  10.9322 H              1 <1>                0.0000
     21 H21          2.0606 -19.9743  12.5121 H              1 <1>                0.0000
     22 H22         -0.7326 -16.2537  11.6168 H              1 <1>                0.0000
     23 H23          1.1715 -14.3894  12.5828 H              1 <1>                0.0000
     24 H24          2.0608 -15.4506  11.4642 H              1 <1>                0.0000
     25 H25          0.9904 -15.6576   8.9327 H              1 <1>                0.0000
     26 H26         -1.8126 -11.5505   8.0102 H              1 <1>                0.0000
     27 H27         -2.4872 -10.0555   9.8360 H              1 <1>                0.0000
     28 H28         -1.8111 -10.5273  12.1517 H              1 <1>                0.0000
     29 H29         -0.4548 -12.4934  12.6704 H              1 <1>                0.0000
     30 H30          1.7732 -17.5067  11.4675 H              1 <1>                0.0000
     31 H31         -0.3242 -13.9662   7.5547 H              1 <1>                0.0000
@<TRIPOS>BOND
    1    1    2 1     
    2    1   19 1     
    3    1   20 1     
    4    1   21 1     
    5    2    3 2     
    6    2    4 am    
    7    4    5 1     
    8    4   30 1     
    9    5    6 1     
   10    5   16 1     
   11    5   22 1     
   12    6    7 1     
   13    6   23 1     
   14    6   24 1     
   15    7    8 2     
   16    7   15 1     
   17    8    9 1     
   18    8   25 1     
   19    9   10 1     
   20    9   31 1     
   21   10   11 ar    
   22   10   15 ar    
   23   11   12 ar    
   24   11   26 1     
   25   12   13 ar    
   26   12   27 1     
   27   13   14 ar    
   28   13   28 1     
   29   14   15 ar    
   30   14   29 1     
   31   16   17 ar    
   32   16   18 ar    
@<TRIPOS>SUBSTRUCTURE
      1 ****           1
@<TRIPOS>SET
DONOR_HYDROGENS      STATIC     ATOMS    <user>   **** ""
2 30 31
ATOM$RED        STATIC     ATOMS    COLORGROUP SYSTEM
2 30 31
@<TRIPOS>COMMENT
> <Gold.Version>
2022.2.0

> <Gold.Id.Protein>
3pbl|protein|mol2

> <Gold.Protein.RotatedTorsions>
[ 1303 1298 1297 1294 ] final  147.71 input  179.99 | X-H torsion
[ 2461 2456 2455 2452 ] final  134.27 input   30.03 | X-H torsion
[ 2515 2510 2509 2506 ] final   17.39 input  -89.99 | X-H torsion
[ 3721 3712 3711 3710 ] final   38.33 input -179.91 | X-H torsion
[ 3841 3832 3831 3830 ] final  176.89 input -179.91 | X-H torsion
[ 3767 3762 3761 3758 ] final -134.12 input  -89.99 | X-H torsion
[ 2472 2467 2466 2463 ] final   90.25 input  -89.97 | X-H torsion

> <Gold.Protein.ActiveResidues>
 VAL82   VAL86   LEU89   PHE106  VAL107  ASP110  VAL111  MET112  CYS114  THR115 
 CYS181  SER182  ILE183  PHE188  VAL189  ILE190  SER192  SER193  SER196  TRP342 
 PHE345  PHE346  HIS349  VAL350  TYR365  THR369  GLY372  TYR373 

> <Gold.Protein.RotatedAtoms>
    4.8985   -9.3510    4.8959 H   0  0  0  0  0  0  0  0  0  0  0  0  # atno 1303 bound_to 1298
    2.0280   -8.8131    8.1993 H   0  0  0  0  0  0  0  0  0  0  0  0  # atno 2461 bound_to 2456
   -5.1045   -4.9203    7.7972 H   0  0  0  0  0  0  0  0  0  0  0  0  # atno 2472 bound_to 2467
    2.4198   -7.4822    4.8200 H   0  0  0  0  0  0  0  0  0  0  0  0  # atno 2515 bound_to 2510
   -2.5022  -18.0178   13.6771 H   0  0  0  0  0  0  0  0  0  0  0  0  # atno 3721 bound_to 3712
   -4.6517  -22.0547   11.6058 H   0  0  0  0  0  0  0  0  0  0  0  0  # atno 3767 bound_to 3762
    2.9838  -20.0858    8.4274 H   0  0  0  0  0  0  0  0  0  0  0  0  # atno 3841 bound_to 3832
    3.6072  -10.1629    4.3130 LP  0  0  0  0  0  0  0  0  0  0  0  0  # atno 4297 bound_to 1298
    3.8562   -8.6075    3.8824 LP  0  0  0  0  0  0  0  0  0  0  0  0  # atno 4298 bound_to 1298
    1.2672   -7.9322    7.0536 LP  0  0  0  0  0  0  0  0  0  0  0  0  # atno 4299 bound_to 2456
    0.4428   -9.0629    7.8954 LP  0  0  0  0  0  0  0  0  0  0  0  0  # atno 4300 bound_to 2456
    2.7879   -9.0717    4.7595 LP  0  0  0  0  0  0  0  0  0  0  0  0  # atno 4301 bound_to 2510
    2.0890   -8.4456    6.0960 LP  0  0  0  0  0  0  0  0  0  0  0  0  # atno 4302 bound_to 2510
   -3.1645  -17.1104   14.8242 LP  0  0  0  0  0  0  0  0  0  0  0  0  # atno 4306 bound_to 3712
   -3.4744  -16.8141   13.2485 LP  0  0  0  0  0  0  0  0  0  0  0  0  # atno 4307 bound_to 3712
    2.3264  -21.1280    9.4559 LP  0  0  0  0  0  0  0  0  0  0  0  0  # atno 4314 bound_to 3832
    1.4563  -19.8751    8.8729 LP  0  0  0  0  0  0  0  0  0  0  0  0  # atno 4315 bound_to 3832
   -4.0449  -23.2776   10.7096 LP  0  0  0  0  0  0  0  0  0  0  0  0  # atno 4318 bound_to 3762
   -5.4307  -22.5425   10.2560 LP  0  0  0  0  0  0  0  0  0  0  0  0  # atno 4319 bound_to 3762
   -3.6376   -5.0144    8.5084 LP  0  0  0  0  0  0  0  0  0  0  0  0  # atno 4320 bound_to 2467
   -4.9750   -5.4588    9.3333 LP  0  0  0  0  0  0  0  0  0  0  0  0  # atno 4321 bound_to 2467

> <Gold.Score>
     Score     S(PLP)   S(hbond)     S(cho)   S(metal)  DE(clash)   DE(tors)     intcor
     52.16     -43.71       2.83       0.92       0.00       0.02       1.41       0.05

> <Gold.PLP.Fitness>
52.1600

> <Gold.PLP.PLP>
-43.7106

> <Gold.PLP.part.hbond>
-3.3691

> <Gold.PLP.part.metal>
0.0000

> <Gold.PLP.part.buried>
-2.7279

> <Gold.PLP.part.nonpolar>
-38.6557

> <Gold.PLP.part.repulsive>
0.1369

> <Gold.PLP.ligand.clash>
0.0219

> <Gold.PLP.ligand.torsion>
1.4141

> <Gold.PLP.Chemscore.Hbond>
2.8284

> <Gold.PLP.Chemscore.CHOScore>
0.9222

> <Gold.PLP.Chemscore.Metal>
0.0000

> <Gold.Chemscore.Hbonds>
donor molecule, donor type, donor heavy atom, donor atom, acceptor molecule, acceptor atom, score
      L1  H     4    30       P1  1227  0.83
      P1  H  2305  2313       L1    18  1.00
      P1  H  3712  3721       L1     3  1.00
      L1  C     8    25       P1  1227  0.92

> <Gold.PLP.Chemscore.Internal.Correction>
0.0480

