#       Name:                EN300-18555_i001
#       Creating user name   fsindt
#       Creation time:       Tue Feb 28 04:06:42 2023


#       File generated by GOLD software.
#

@<TRIPOS>MOLECULE
EN300-18555_i001|acide_1|mol2|2798|dock8
    31    32     1
SMALL
USER_CHARGES


@<TRIPOS>ATOM
      1 C1          -0.3878 -19.9564  11.4201 C.3            1 <1>                0.0000
      2 C2          -0.3513 -18.5784  12.0289 C.2            1 <1>                0.0000
      3 O3          -1.0063 -18.3360  13.0204 O.2            1 <1>                0.0000
      4 N4           0.4093 -17.6154  11.4717 N.am           1 <1>                0.0000
      5 C5           0.4449 -16.2758  12.0635 C.3            1 <1>                0.0000
      6 C6           1.0490 -15.2909  11.0605 C.3            1 <1>                0.0000
      7 C7           0.1281 -14.1089  10.9002 C.2            1 <1>                0.0000
      8 C8          -0.8679 -13.7546  11.7275 C.2            1 <1>                0.0000
      9 N9          -1.4852 -12.6271  11.2585 N.pl3          1 <1>                0.0000
     10 C10         -0.8862 -12.2178  10.0883 C.ar           1 <1>                0.0000
     11 C11         -1.1119 -11.1574   9.2170 C.ar           1 <1>                0.0000
     12 C12         -0.3207 -11.0105   8.0984 C.ar           1 <1>                0.0000
     13 C13          0.7009 -11.9110   7.8308 C.ar           1 <1>                0.0000
     14 C14          0.9396 -12.9604   8.6731 C.ar           1 <1>                0.0000
     15 C15          0.1544 -13.1246   9.8155 C.ar           1 <1>                0.0000
     16 C16          1.2874 -16.3007  13.3127 C.2            1 <1>                0.0000
     17 O17          0.8110 -15.9431  14.3765 O.co2          1 <1>                0.0000
     18 O18          2.4455 -16.6784  13.2595 O.co2          1 <1>               -1.0000
     19 H19         -1.0520 -20.5940  12.0037 H              1 <1>                0.0000
     20 H20         -0.7543 -19.8915  10.3956 H              1 <1>                0.0000
     21 H21          0.6162 -20.3807  11.4206 H              1 <1>                0.0000
     22 H22         -0.5684 -15.9626  12.3149 H              1 <1>                0.0000
     23 H23          2.0180 -14.9499  11.4247 H              1 <1>                0.0000
     24 H24          1.1762 -15.7854  10.0975 H              1 <1>                0.0000
     25 H25         -1.1417 -14.2817  12.6295 H              1 <1>                0.0000
     26 H26         -1.9047 -10.4515   9.4164 H              1 <1>                0.0000
     27 H27         -0.4977 -10.1866   7.4229 H              1 <1>                0.0000
     28 H28          1.3117 -11.7816   6.9497 H              1 <1>                0.0000
     29 H29          1.7362 -13.6574   8.4582 H              1 <1>                0.0000
     30 H30          0.9332 -17.8093  10.6786 H              1 <1>                0.0000
     31 H31         -2.2335 -12.1824  11.6868 H              1 <1>                0.0000
@<TRIPOS>BOND
    1    1    2 1     
    2    1   19 1     
    3    1   20 1     
    4    1   21 1     
    5    2    3 2     
    6    2    4 am    
    7    4    5 1     
    8    4   30 1     
    9    5    6 1     
   10    5   16 1     
   11    5   22 1     
   12    6    7 1     
   13    6   23 1     
   14    6   24 1     
   15    7    8 2     
   16    7   15 1     
   17    8    9 1     
   18    8   25 1     
   19    9   10 1     
   20    9   31 1     
   21   10   11 ar    
   22   10   15 ar    
   23   11   12 ar    
   24   11   26 1     
   25   12   13 ar    
   26   12   27 1     
   27   13   14 ar    
   28   13   28 1     
   29   14   15 ar    
   30   14   29 1     
   31   16   17 ar    
   32   16   18 ar    
@<TRIPOS>SUBSTRUCTURE
      1 ****           1
@<TRIPOS>SET
DONOR_HYDROGENS      STATIC     ATOMS    <user>   **** ""
2 30 31
ATOM$RED        STATIC     ATOMS    COLORGROUP SYSTEM
2 30 31
@<TRIPOS>COMMENT
> <Gold.Version>
2022.2.0

> <Gold.Id.Protein>
3pbl|protein|mol2

> <Gold.Protein.RotatedTorsions>
[ 1303 1298 1297 1294 ] final  160.95 input  179.99 | X-H torsion
[ 2461 2456 2455 2452 ] final   49.13 input   30.03 | X-H torsion
[ 2515 2510 2509 2506 ] final   22.17 input  -89.99 | X-H torsion
[ 3721 3712 3711 3710 ] final   51.49 input -179.91 | X-H torsion
[ 3841 3832 3831 3830 ] final  -13.84 input -179.91 | X-H torsion
[ 3767 3762 3761 3758 ] final  159.96 input  -89.99 | X-H torsion
[ 2472 2467 2466 2463 ] final   31.45 input  -89.97 | X-H torsion

> <Gold.Protein.ActiveResidues>
 VAL82   VAL86   LEU89   PHE106  VAL107  ASP110  VAL111  MET112  CYS114  THR115 
 CYS181  SER182  ILE183  PHE188  VAL189  ILE190  SER192  SER193  SER196  TRP342 
 PHE345  PHE346  HIS349  VAL350  TYR365  THR369  GLY372  TYR373 

> <Gold.Protein.RotatedAtoms>
    4.9107   -9.1459    4.8249 H   0  0  0  0  0  0  0  0  0  0  0  0  # atno 1303 bound_to 1298
    1.7866   -7.9699    7.2726 H   0  0  0  0  0  0  0  0  0  0  0  0  # atno 2461 bound_to 2456
   -4.1875   -4.8027    7.7508 H   0  0  0  0  0  0  0  0  0  0  0  0  # atno 2472 bound_to 2467
    2.3862   -7.4550    4.8857 H   0  0  0  0  0  0  0  0  0  0  0  0  # atno 2515 bound_to 2510
   -2.5501  -17.9627   13.4926 H   0  0  0  0  0  0  0  0  0  0  0  0  # atno 3721 bound_to 3712
   -3.9549  -22.7798   11.4015 H   0  0  0  0  0  0  0  0  0  0  0  0  # atno 3767 bound_to 3762
    1.6361  -20.3242    9.4753 H   0  0  0  0  0  0  0  0  0  0  0  0  # atno 3841 bound_to 3832
    3.7588  -10.2403    4.4483 LP  0  0  0  0  0  0  0  0  0  0  0  0  # atno 4297 bound_to 1298
    3.6924   -8.7352    3.8182 LP  0  0  0  0  0  0  0  0  0  0  0  0  # atno 4298 bound_to 1298
    0.3360   -8.6896    7.4852 LP  0  0  0  0  0  0  0  0  0  0  0  0  # atno 4299 bound_to 2456
    1.6154   -9.1485    8.3902 LP  0  0  0  0  0  0  0  0  0  0  0  0  # atno 4300 bound_to 2456
    2.8026   -9.0228    4.6997 LP  0  0  0  0  0  0  0  0  0  0  0  0  # atno 4301 bound_to 2510
    2.1080   -8.5218    6.0900 LP  0  0  0  0  0  0  0  0  0  0  0  0  # atno 4302 bound_to 2510
   -3.0546  -17.2961   14.8633 LP  0  0  0  0  0  0  0  0  0  0  0  0  # atno 4306 bound_to 3712
   -3.5289  -16.6920   13.4223 LP  0  0  0  0  0  0  0  0  0  0  0  0  # atno 4307 bound_to 3712
    2.3540  -19.7164    8.1748 LP  0  0  0  0  0  0  0  0  0  0  0  0  # atno 4314 bound_to 3832
    2.9854  -21.0114    8.9434 LP  0  0  0  0  0  0  0  0  0  0  0  0  # atno 4315 bound_to 3832
   -4.8486  -23.1482   10.0853 LP  0  0  0  0  0  0  0  0  0  0  0  0  # atno 4318 bound_to 3762
   -5.3235  -21.9471   11.0845 LP  0  0  0  0  0  0  0  0  0  0  0  0  # atno 4319 bound_to 3762
   -4.0240   -5.3369    9.2852 LP  0  0  0  0  0  0  0  0  0  0  0  0  # atno 4320 bound_to 2467
   -5.5053   -5.2539    8.6029 LP  0  0  0  0  0  0  0  0  0  0  0  0  # atno 4321 bound_to 2467

> <Gold.Score>
     Score     S(PLP)   S(hbond)     S(cho)   S(metal)  DE(clash)   DE(tors)     intcor
     50.10     -43.41       2.98       0.00       0.00       0.00       1.15       0.05

> <Gold.PLP.Fitness>
50.1026

> <Gold.PLP.PLP>
-43.4077

> <Gold.PLP.part.hbond>
-3.0000

> <Gold.PLP.part.metal>
0.0000

> <Gold.PLP.part.buried>
-3.8198

> <Gold.PLP.part.nonpolar>
-38.3715

> <Gold.PLP.part.repulsive>
0.1758

> <Gold.PLP.ligand.clash>
0.0000

> <Gold.PLP.ligand.torsion>
1.1515

> <Gold.PLP.Chemscore.Hbond>
2.9833

> <Gold.PLP.Chemscore.CHOScore>
0.0000

> <Gold.PLP.Chemscore.Metal>
0.0000

> <Gold.Chemscore.Hbonds>
donor molecule, donor type, donor heavy atom, donor atom, acceptor molecule, acceptor atom, score
      L1  H     4    30       P1  1227  0.98
      P1  H  2305  2313       L1    17  1.00
      P1  H  3712  3721       L1     3  1.00

> <Gold.PLP.Chemscore.Internal.Correction>
0.0480

