#       Name:                EN300-18555_i001
#       Creating user name   fsindt
#       Creation time:       Tue Feb 28 04:06:40 2023


#       File generated by GOLD software.
#

@<TRIPOS>MOLECULE
EN300-18555_i001|acide_1|mol2|2798|dock5
    31    32     1
SMALL
USER_CHARGES


@<TRIPOS>ATOM
      1 C1           0.2037 -20.4583  11.4638 C.3            1 <1>                0.0000
      2 C2          -0.1554 -19.1173  12.0501 C.2            1 <1>                0.0000
      3 O3          -1.0808 -19.0239  12.8284 O.2            1 <1>                0.0000
      4 N4           0.5519 -18.0217  11.7095 N.am           1 <1>                0.0000
      5 C5           0.2029 -16.7181  12.2794 C.3            1 <1>                0.0000
      6 C6           1.1276 -15.6448  11.7016 C.3            1 <1>                0.0000
      7 C7           0.3012 -14.5001  11.1749 C.2            1 <1>                0.0000
      8 C8          -0.7002 -13.8768  11.8160 C.2            1 <1>                0.0000
      9 N9          -1.2154 -12.8862  11.0251 N.pl3          1 <1>                0.0000
     10 C10         -0.5410 -12.8466   9.8253 C.ar           1 <1>                0.0000
     11 C11         -0.6541 -12.0527   8.6890 C.ar           1 <1>                0.0000
     12 C12          0.1910 -12.2622   7.6209 C.ar           1 <1>                0.0000
     13 C13          1.1556 -13.2589   7.6665 C.ar           1 <1>                0.0000
     14 C14          1.2838 -14.0509   8.7728 C.ar           1 <1>                0.0000
     15 C15          0.4424 -13.8520   9.8688 C.ar           1 <1>                0.0000
     16 C16          0.3626 -16.7656  13.7771 C.2            1 <1>                0.0000
     17 O17          0.1241 -15.7754  14.4473 O.co2          1 <1>                0.0000
     18 O18          0.7305 -17.7941  14.3186 O.co2          1 <1>               -1.0000
     19 H19         -0.4739 -21.2183  11.8532 H              1 <1>                0.0000
     20 H20          0.1161 -20.4156  10.3782 H              1 <1>                0.0000
     21 H21          1.2283 -20.7113  11.7360 H              1 <1>                0.0000
     22 H22         -0.8311 -16.4784  12.0317 H              1 <1>                0.0000
     23 H23          1.7954 -15.2817  12.4828 H              1 <1>                0.0000
     24 H24          1.7165 -16.0714  10.8896 H              1 <1>                0.0000
     25 H25         -1.0479 -14.1214  12.8087 H              1 <1>                0.0000
     26 H26         -1.4018 -11.2747   8.6438 H              1 <1>                0.0000
     27 H27          0.1014 -11.6448   6.7393 H              1 <1>                0.0000
     28 H28          1.8099 -13.4101   6.8207 H              1 <1>                0.0000
     29 H29          2.0365 -14.8249   8.8009 H              1 <1>                0.0000
     30 H30          1.2920 -18.0965  11.0869 H              1 <1>                0.0000
     31 H31         -1.9468 -12.2992  11.2728 H              1 <1>                0.0000
@<TRIPOS>BOND
    1    1    2 1     
    2    1   19 1     
    3    1   20 1     
    4    1   21 1     
    5    2    3 2     
    6    2    4 am    
    7    4    5 1     
    8    4   30 1     
    9    5    6 1     
   10    5   16 1     
   11    5   22 1     
   12    6    7 1     
   13    6   23 1     
   14    6   24 1     
   15    7    8 2     
   16    7   15 1     
   17    8    9 1     
   18    8   25 1     
   19    9   10 1     
   20    9   31 1     
   21   10   11 ar    
   22   10   15 ar    
   23   11   12 ar    
   24   11   26 1     
   25   12   13 ar    
   26   12   27 1     
   27   13   14 ar    
   28   13   28 1     
   29   14   15 ar    
   30   14   29 1     
   31   16   17 ar    
   32   16   18 ar    
@<TRIPOS>SUBSTRUCTURE
      1 ****           1
@<TRIPOS>SET
DONOR_HYDROGENS      STATIC     ATOMS    <user>   **** ""
2 30 31
ATOM$RED        STATIC     ATOMS    COLORGROUP SYSTEM
2 30 31
@<TRIPOS>COMMENT
> <Gold.Version>
2022.2.0

> <Gold.Id.Protein>
3pbl|protein|mol2

> <Gold.Protein.RotatedTorsions>
[ 1303 1298 1297 1294 ] final -175.41 input  179.99 | X-H torsion
[ 2461 2456 2455 2452 ] final -114.75 input   30.03 | X-H torsion
[ 2515 2510 2509 2506 ] final  -71.73 input  -89.99 | X-H torsion
[ 3721 3712 3711 3710 ] final   47.01 input -179.91 | X-H torsion
[ 3841 3832 3831 3830 ] final -116.54 input -179.91 | X-H torsion
[ 3767 3762 3761 3758 ] final  -78.69 input  -89.99 | X-H torsion
[ 2472 2467 2466 2463 ] final -102.22 input  -89.97 | X-H torsion

> <Gold.Protein.ActiveResidues>
 VAL82   VAL86   LEU89   PHE106  VAL107  ASP110  VAL111  MET112  CYS114  THR115 
 CYS181  SER182  ILE183  PHE188  VAL189  ILE190  SER192  SER193  SER196  TRP342 
 PHE345  PHE346  HIS349  VAL350  TYR365  THR369  GLY372  TYR373 

> <Gold.Protein.RotatedAtoms>
    4.8291   -8.8167    4.6403 H   0  0  0  0  0  0  0  0  0  0  0  0  # atno 1303 bound_to 1298
    0.5213   -9.1370    7.9969 H   0  0  0  0  0  0  0  0  0  0  0  0  # atno 2461 bound_to 2456
   -4.2192   -5.3934    9.3803 H   0  0  0  0  0  0  0  0  0  0  0  0  # atno 2472 bound_to 2467
    2.8354   -8.6813    4.4477 H   0  0  0  0  0  0  0  0  0  0  0  0  # atno 2515 bound_to 2510
   -2.5316  -17.9856   13.5535 H   0  0  0  0  0  0  0  0  0  0  0  0  # atno 3721 bound_to 3712
   -5.3353  -21.9517   11.0661 H   0  0  0  0  0  0  0  0  0  0  0  0  # atno 3767 bound_to 3762
    2.1772  -19.5864    8.4797 H   0  0  0  0  0  0  0  0  0  0  0  0  # atno 3841 bound_to 3832
    4.0713  -10.2627    4.6742 LP  0  0  0  0  0  0  0  0  0  0  0  0  # atno 4297 bound_to 1298
    3.4616   -9.0421    3.7769 LP  0  0  0  0  0  0  0  0  0  0  0  0  # atno 4298 bound_to 1298
    2.0927   -8.7082    8.1170 LP  0  0  0  0  0  0  0  0  0  0  0  0  # atno 4299 bound_to 2456
    1.1235   -7.9631    7.0343 LP  0  0  0  0  0  0  0  0  0  0  0  0  # atno 4300 bound_to 2456
    2.2468   -8.9007    5.9547 LP  0  0  0  0  0  0  0  0  0  0  0  0  # atno 4301 bound_to 2510
    2.2143   -7.4170    5.2733 LP  0  0  0  0  0  0  0  0  0  0  0  0  # atno 4302 bound_to 2510
   -3.0921  -17.2319   14.8556 LP  0  0  0  0  0  0  0  0  0  0  0  0  # atno 4306 bound_to 3712
   -3.5128  -16.7297   13.3598 LP  0  0  0  0  0  0  0  0  0  0  0  0  # atno 4307 bound_to 3712
    3.0810  -20.8811    8.7675 LP  0  0  0  0  0  0  0  0  0  0  0  0  # atno 4314 bound_to 3832
    1.6334  -20.6989    9.5008 LP  0  0  0  0  0  0  0  0  0  0  0  0  # atno 4315 bound_to 3832
   -3.9622  -22.7637   11.4153 LP  0  0  0  0  0  0  0  0  0  0  0  0  # atno 4318 bound_to 3762
   -4.8300  -23.1593   10.0898 LP  0  0  0  0  0  0  0  0  0  0  0  0  # atno 4319 bound_to 3762
   -5.5012   -5.1776    8.3922 LP  0  0  0  0  0  0  0  0  0  0  0  0  # atno 4320 bound_to 2467
   -3.9964   -4.8226    7.8667 LP  0  0  0  0  0  0  0  0  0  0  0  0  # atno 4321 bound_to 2467

> <Gold.Score>
     Score     S(PLP)   S(hbond)     S(cho)   S(metal)  DE(clash)   DE(tors)     intcor
     53.05     -45.99       2.89       0.00       0.00       0.00       0.84       0.05

> <Gold.PLP.Fitness>
53.0457

> <Gold.PLP.PLP>
-45.9936

> <Gold.PLP.part.hbond>
-3.0000

> <Gold.PLP.part.metal>
0.0000

> <Gold.PLP.part.buried>
-5.6538

> <Gold.PLP.part.nonpolar>
-38.8466

> <Gold.PLP.part.repulsive>
0.1628

> <Gold.PLP.ligand.clash>
0.0000

> <Gold.PLP.ligand.torsion>
0.8386

> <Gold.PLP.Chemscore.Hbond>
2.8938

> <Gold.PLP.Chemscore.CHOScore>
0.0000

> <Gold.PLP.Chemscore.Metal>
0.0000

> <Gold.Chemscore.Hbonds>
donor molecule, donor type, donor heavy atom, donor atom, acceptor molecule, acceptor atom, score
      L1  H     4    30       P1  1227  0.89
      P1  H  2305  2313       L1    17  1.00
      P1  H  3712  3721       L1     3  1.00

> <Gold.PLP.Chemscore.Internal.Correction>
0.0480

