#       Name:                EN300-18555_i001
#       Creating user name   fsindt
#       Creation time:       Tue Feb 28 04:06:41 2023


#       File generated by GOLD software.
#

@<TRIPOS>MOLECULE
EN300-18555_i001|acide_1|mol2|2798|dock6
    31    32     1
SMALL
USER_CHARGES


@<TRIPOS>ATOM
      1 C1           2.9057 -16.5228  14.9683 C.3            1 <1>                0.0000
      2 C2           1.6414 -16.4882  14.1490 C.2            1 <1>                0.0000
      3 O3           0.5658 -16.3764  14.6983 O.2            1 <1>                0.0000
      4 N4           1.7058 -16.5815  12.8061 N.am           1 <1>                0.0000
      5 C5           0.4767 -16.5479  12.0097 C.3            1 <1>                0.0000
      6 C6          -0.2396 -15.2146  12.2333 C.3            1 <1>                0.0000
      7 C7          -0.1011 -14.3571  11.0018 C.2            1 <1>                0.0000
      8 C8           0.5048 -14.7000   9.8540 C.2            1 <1>                0.0000
      9 N9           0.4323 -13.6657   8.9611 N.pl3          1 <1>                0.0000
     10 C10         -0.2391 -12.6050   9.5268 C.ar           1 <1>                0.0000
     11 C11         -0.5854 -11.3377   9.0703 C.ar           1 <1>                0.0000
     12 C12         -1.2780 -10.4786   9.8956 C.ar           1 <1>                0.0000
     13 C13         -1.6344 -10.8647  11.1802 C.ar           1 <1>                0.0000
     14 C14         -1.3037 -12.1050  11.6492 C.ar           1 <1>                0.0000
     15 C15         -0.6077 -12.9937  10.8279 C.ar           1 <1>                0.0000
     16 C16         -0.4254 -17.6795  12.4301 C.2            1 <1>                0.0000
     17 O17         -1.5271 -17.8016  11.9223 O.co2          1 <1>                0.0000
     18 O18         -0.0536 -18.4728  13.2780 O.co2          1 <1>               -1.0000
     19 H19          2.6560 -16.4353  16.0258 H              1 <1>                0.0000
     20 H20          3.4257 -17.4648  14.7946 H              1 <1>                0.0000
     21 H21          3.5500 -15.6931  14.6774 H              1 <1>                0.0000
     22 H22          0.7250 -16.6543  10.9537 H              1 <1>                0.0000
     23 H23         -1.2956 -15.3982  12.4313 H              1 <1>                0.0000
     24 H24          0.2060 -14.7012  13.0854 H              1 <1>                0.0000
     25 H25          0.9794 -15.6512   9.6637 H              1 <1>                0.0000
     26 H26         -0.3123 -11.0279   8.0724 H              1 <1>                0.0000
     27 H27         -1.5458  -9.4949   9.5394 H              1 <1>                0.0000
     28 H28         -2.1770 -10.1793  11.8143 H              1 <1>                0.0000
     29 H29         -1.5841 -12.3983  12.6501 H              1 <1>                0.0000
     30 H30          2.5661 -16.6710  12.3669 H              1 <1>                0.0000
     31 H31          0.7993 -13.6779   8.0633 H              1 <1>                0.0000
@<TRIPOS>BOND
    1    1    2 1     
    2    1   19 1     
    3    1   20 1     
    4    1   21 1     
    5    2    3 2     
    6    2    4 am    
    7    4    5 1     
    8    4   30 1     
    9    5    6 1     
   10    5   16 1     
   11    5   22 1     
   12    6    7 1     
   13    6   23 1     
   14    6   24 1     
   15    7    8 2     
   16    7   15 1     
   17    8    9 1     
   18    8   25 1     
   19    9   10 1     
   20    9   31 1     
   21   10   11 ar    
   22   10   15 ar    
   23   11   12 ar    
   24   11   26 1     
   25   12   13 ar    
   26   12   27 1     
   27   13   14 ar    
   28   13   28 1     
   29   14   15 ar    
   30   14   29 1     
   31   16   17 ar    
   32   16   18 ar    
@<TRIPOS>SUBSTRUCTURE
      1 ****           1
@<TRIPOS>SET
DONOR_HYDROGENS      STATIC     ATOMS    <user>   **** ""
2 30 31
ATOM$RED        STATIC     ATOMS    COLORGROUP SYSTEM
2 30 31
@<TRIPOS>COMMENT
> <Gold.Version>
2022.2.0

> <Gold.Id.Protein>
3pbl|protein|mol2

> <Gold.Protein.RotatedTorsions>
[ 1303 1298 1297 1294 ] final -167.16 input  179.99 | X-H torsion
[ 2461 2456 2455 2452 ] final -129.81 input   30.03 | X-H torsion
[ 2515 2510 2509 2506 ] final  145.39 input  -89.99 | X-H torsion
[ 3721 3712 3711 3710 ] final   62.31 input -179.91 | X-H torsion
[ 3841 3832 3831 3830 ] final  -10.20 input -179.91 | X-H torsion
[ 3767 3762 3761 3758 ] final  -76.95 input  -89.99 | X-H torsion
[ 2472 2467 2466 2463 ] final -139.40 input  -89.97 | X-H torsion

> <Gold.Protein.ActiveResidues>
 VAL82   VAL86   LEU89   PHE106  VAL107  ASP110  VAL111  MET112  CYS114  THR115 
 CYS181  SER182  ILE183  PHE188  VAL189  ILE190  SER192  SER193  SER196  TRP342 
 PHE345  PHE346  HIS349  VAL350  TYR365  THR369  GLY372  TYR373 

> <Gold.Protein.RotatedAtoms>
    4.7712   -8.7213    4.5631 H   0  0  0  0  0  0  0  0  0  0  0  0  # atno 1303 bound_to 1298
    0.6916   -9.2305    8.1497 H   0  0  0  0  0  0  0  0  0  0  0  0  # atno 2461 bound_to 2456
   -4.8160   -5.4641    9.3941 H   0  0  0  0  0  0  0  0  0  0  0  0  # atno 2472 bound_to 2467
    2.1222   -8.5720    6.0824 H   0  0  0  0  0  0  0  0  0  0  0  0  # atno 2515 bound_to 2510
   -2.6037  -17.8904   13.3562 H   0  0  0  0  0  0  0  0  0  0  0  0  # atno 3721 bound_to 3712
   -5.3502  -21.9589   11.0428 H   0  0  0  0  0  0  0  0  0  0  0  0  # atno 3767 bound_to 3762
    1.6588  -20.3677    9.5002 H   0  0  0  0  0  0  0  0  0  0  0  0  # atno 3841 bound_to 3832
    4.1851  -10.2348    4.7425 LP  0  0  0  0  0  0  0  0  0  0  0  0  # atno 4297 bound_to 1298
    3.4056   -9.1654    3.7858 LP  0  0  0  0  0  0  0  0  0  0  0  0  # atno 4298 bound_to 1298
    2.1539   -8.5285    7.9588 LP  0  0  0  0  0  0  0  0  0  0  0  0  # atno 4299 bound_to 2456
    0.8921   -8.0494    7.0397 LP  0  0  0  0  0  0  0  0  0  0  0  0  # atno 4300 bound_to 2456
    2.3637   -7.4399    4.9310 LP  0  0  0  0  0  0  0  0  0  0  0  0  # atno 4301 bound_to 2510
    2.8110   -8.9871    4.6615 LP  0  0  0  0  0  0  0  0  0  0  0  0  # atno 4302 bound_to 2510
   -2.9652  -17.4530   14.8581 LP  0  0  0  0  0  0  0  0  0  0  0  0  # atno 4306 bound_to 3712
   -3.5565  -16.6186   13.5850 LP  0  0  0  0  0  0  0  0  0  0  0  0  # atno 4307 bound_to 3712
    2.2989  -19.6959    8.1906 LP  0  0  0  0  0  0  0  0  0  0  0  0  # atno 4314 bound_to 3832
    3.0143  -20.9817    8.8989 LP  0  0  0  0  0  0  0  0  0  0  0  0  # atno 4315 bound_to 3832
   -3.9714  -22.7426   11.4321 LP  0  0  0  0  0  0  0  0  0  0  0  0  # atno 4318 bound_to 3762
   -4.8060  -23.1733   10.0962 LP  0  0  0  0  0  0  0  0  0  0  0  0  # atno 4319 bound_to 3762
   -5.2347   -4.9692    7.8954 LP  0  0  0  0  0  0  0  0  0  0  0  0  # atno 4320 bound_to 2467
   -3.6662   -4.9604    8.3498 LP  0  0  0  0  0  0  0  0  0  0  0  0  # atno 4321 bound_to 2467

> <Gold.Score>
     Score     S(PLP)   S(hbond)     S(cho)   S(metal)  DE(clash)   DE(tors)     intcor
     52.35     -44.69       2.00       1.00       0.00       0.00       0.70       0.05

> <Gold.PLP.Fitness>
52.3461

> <Gold.PLP.PLP>
-44.6897

> <Gold.PLP.part.hbond>
-2.0000

> <Gold.PLP.part.metal>
0.0000

> <Gold.PLP.part.buried>
-3.0557

> <Gold.PLP.part.nonpolar>
-40.4956

> <Gold.PLP.part.repulsive>
0.1106

> <Gold.PLP.ligand.clash>
0.0000

> <Gold.PLP.ligand.torsion>
0.6958

> <Gold.PLP.Chemscore.Hbond>
2.0000

> <Gold.PLP.Chemscore.CHOScore>
1.0000

> <Gold.PLP.Chemscore.Metal>
0.0000

> <Gold.Chemscore.Hbonds>
donor molecule, donor type, donor heavy atom, donor atom, acceptor molecule, acceptor atom, score
      P1  H  2305  2313       L1     3  1.00
      P1  H  3712  3721       L1    17  1.00
      L1  C     8    25       P1  1227  1.00

> <Gold.PLP.Chemscore.Internal.Correction>
0.0480

