#       Name:                EN300-18555_i001
#       Creating user name   fsindt
#       Creation time:       Tue Feb 28 04:06:52 2023


#       File generated by GOLD software.
#

@<TRIPOS>MOLECULE
EN300-18555_i001|acide_1|mol2|2798|dock18
    31    32     1
SMALL
USER_CHARGES


@<TRIPOS>ATOM
      1 C1          -4.0938  -9.6188   9.7808 C.3            1 <1>                0.0000
      2 C2          -3.2307 -10.8538   9.7553 C.2            1 <1>                0.0000
      3 O3          -3.7327 -11.9476   9.9055 O.2            1 <1>                0.0000
      4 N4          -1.9010 -10.7429   9.5656 N.am           1 <1>                0.0000
      5 C5          -1.0620 -11.9435   9.5408 C.3            1 <1>                0.0000
      6 C6          -0.9767 -12.5353  10.9491 C.3            1 <1>                0.0000
      7 C7          -0.3442 -13.9015  10.8825 C.2            1 <1>                0.0000
      8 C8           0.1787 -14.4872   9.7937 C.2            1 <1>                0.0000
      9 N9           0.6618 -15.7259  10.1168 N.pl3          1 <1>                0.0000
     10 C10          0.4565 -15.9740  11.4555 C.ar           1 <1>                0.0000
     11 C11          0.7472 -17.0516  12.2853 C.ar           1 <1>                0.0000
     12 C12          0.4078 -16.9988  13.6198 C.ar           1 <1>                0.0000
     13 C13         -0.2225 -15.8800  14.1461 C.ar           1 <1>                0.0000
     14 C14         -0.5181 -14.8102  13.3486 C.ar           1 <1>                0.0000
     15 C15         -0.1775 -14.8397  11.9952 C.ar           1 <1>                0.0000
     16 C16          0.3207 -11.5803   9.0640 C.2            1 <1>                0.0000
     17 O17          0.9880 -10.7727   9.6876 O.co2          1 <1>                0.0000
     18 O18          0.7720 -12.0941   8.0545 O.co2          1 <1>               -1.0000
     19 H19         -5.1329  -9.9050   9.9440 H              1 <1>                0.0000
     20 H20         -3.7666  -8.9633  10.5879 H              1 <1>                0.0000
     21 H21         -4.0065  -9.0947   8.8291 H              1 <1>                0.0000
     22 H22         -1.4985 -12.6779   8.8640 H              1 <1>                0.0000
     23 H23         -0.3712 -11.8850  11.5805 H              1 <1>                0.0000
     24 H24         -1.9789 -12.6192  11.3693 H              1 <1>                0.0000
     25 H25          0.2127 -14.0461   8.8085 H              1 <1>                0.0000
     26 H26          1.2372 -17.9269  11.8851 H              1 <1>                0.0000
     27 H27          0.6341 -17.8368  14.2625 H              1 <1>                0.0000
     28 H28         -0.4819 -15.8547  15.1941 H              1 <1>                0.0000
     29 H29         -1.0090 -13.9431  13.7651 H              1 <1>                0.0000
     30 H30         -1.4996  -9.8680   9.4455 H              1 <1>                0.0000
     31 H31          1.0858 -16.3382   9.4952 H              1 <1>                0.0000
@<TRIPOS>BOND
    1    1    2 1     
    2    1   19 1     
    3    1   20 1     
    4    1   21 1     
    5    2    3 2     
    6    2    4 am    
    7    4    5 1     
    8    4   30 1     
    9    5    6 1     
   10    5   16 1     
   11    5   22 1     
   12    6    7 1     
   13    6   23 1     
   14    6   24 1     
   15    7    8 2     
   16    7   15 1     
   17    8    9 1     
   18    8   25 1     
   19    9   10 1     
   20    9   31 1     
   21   10   11 ar    
   22   10   15 ar    
   23   11   12 ar    
   24   11   26 1     
   25   12   13 ar    
   26   12   27 1     
   27   13   14 ar    
   28   13   28 1     
   29   14   15 ar    
   30   14   29 1     
   31   16   17 ar    
   32   16   18 ar    
@<TRIPOS>SUBSTRUCTURE
      1 ****           1
@<TRIPOS>SET
DONOR_HYDROGENS      STATIC     ATOMS    <user>   **** ""
2 30 31
ATOM$RED        STATIC     ATOMS    COLORGROUP SYSTEM
2 30 31
@<TRIPOS>COMMENT
> <Gold.Version>
2022.2.0

> <Gold.Id.Protein>
3pbl|protein|mol2

> <Gold.Protein.RotatedTorsions>
[ 1303 1298 1297 1294 ] final   26.64 input  179.99 | X-H torsion
[ 2461 2456 2455 2452 ] final -173.15 input   30.03 | X-H torsion
[ 2515 2510 2509 2506 ] final  110.11 input  -89.99 | X-H torsion
[ 3721 3712 3711 3710 ] final   77.36 input -179.91 | X-H torsion
[ 3841 3832 3831 3830 ] final   35.37 input -179.91 | X-H torsion
[ 3767 3762 3761 3758 ] final -175.75 input  -89.99 | X-H torsion
[ 2472 2467 2466 2463 ] final -139.84 input  -89.97 | X-H torsion

> <Gold.Protein.ActiveResidues>
 VAL82   VAL86   LEU89   PHE106  VAL107  ASP110  VAL111  MET112  CYS114  THR115 
 CYS181  SER182  ILE183  PHE188  VAL189  ILE190  SER192  SER193  SER196  TRP342 
 PHE345  PHE346  HIS349  VAL350  TYR365  THR369  GLY372  TYR373 

> <Gold.Protein.RotatedAtoms>
    3.5960  -10.1544    4.3026 H   0  0  0  0  0  0  0  0  0  0  0  0  # atno 1303 bound_to 1298
    1.3430   -9.2492    8.3958 H   0  0  0  0  0  0  0  0  0  0  0  0  # atno 2461 bound_to 2456
   -4.8230   -5.4641    9.3921 H   0  0  0  0  0  0  0  0  0  0  0  0  # atno 2472 bound_to 2467
    2.0301   -8.0125    6.0148 H   0  0  0  0  0  0  0  0  0  0  0  0  # atno 2515 bound_to 2510
   -2.6954  -17.7546   13.1993 H   0  0  0  0  0  0  0  0  0  0  0  0  # atno 3721 bound_to 3712
   -4.1345  -22.4807   11.5906 H   0  0  0  0  0  0  0  0  0  0  0  0  # atno 3767 bound_to 3762
    2.1360  -20.8246    9.6138 H   0  0  0  0  0  0  0  0  0  0  0  0  # atno 3841 bound_to 3832
    3.8702   -8.5988    3.8888 LP  0  0  0  0  0  0  0  0  0  0  0  0  # atno 4297 bound_to 1298
    4.8962   -9.3678    4.9002 LP  0  0  0  0  0  0  0  0  0  0  0  0  # atno 4298 bound_to 1298
    1.9856   -8.0808    7.4528 LP  0  0  0  0  0  0  0  0  0  0  0  0  # atno 4299 bound_to 2456
    0.4092   -8.4784    7.2997 LP  0  0  0  0  0  0  0  0  0  0  0  0  # atno 4300 bound_to 2456
    2.6060   -7.7422    4.5112 LP  0  0  0  0  0  0  0  0  0  0  0  0  # atno 4301 bound_to 2510
    2.6609   -9.2445    5.1489 LP  0  0  0  0  0  0  0  0  0  0  0  0  # atno 4302 bound_to 2510
   -2.8488  -17.6659   14.7951 LP  0  0  0  0  0  0  0  0  0  0  0  0  # atno 4306 bound_to 3712
   -3.5670  -16.5624   13.8292 LP  0  0  0  0  0  0  0  0  0  0  0  0  # atno 4307 bound_to 3712
    1.6668  -19.6916    8.5782 LP  0  0  0  0  0  0  0  0  0  0  0  0  # atno 4314 bound_to 3832
    3.0951  -20.4581    8.3801 LP  0  0  0  0  0  0  0  0  0  0  0  0  # atno 4315 bound_to 3832
   -4.5114  -23.2997   10.2290 LP  0  0  0  0  0  0  0  0  0  0  0  0  # atno 4318 bound_to 3762
   -5.4813  -22.0945   10.7517 LP  0  0  0  0  0  0  0  0  0  0  0  0  # atno 4319 bound_to 3762
   -5.2295   -4.9669    7.8907 LP  0  0  0  0  0  0  0  0  0  0  0  0  # atno 4320 bound_to 2467
   -3.6644   -4.9626    8.3565 LP  0  0  0  0  0  0  0  0  0  0  0  0  # atno 4321 bound_to 2467

> <Gold.Score>
     Score     S(PLP)   S(hbond)     S(cho)   S(metal)  DE(clash)   DE(tors)     intcor
     51.50     -46.74       1.70       0.00       0.00       0.00       0.19       0.02

> <Gold.PLP.Fitness>
51.5042

> <Gold.PLP.PLP>
-46.7424

> <Gold.PLP.part.hbond>
-2.0000

> <Gold.PLP.part.metal>
0.0000

> <Gold.PLP.part.buried>
-4.4183

> <Gold.PLP.part.nonpolar>
-43.1045

> <Gold.PLP.part.repulsive>
0.0805

> <Gold.PLP.ligand.clash>
0.0000

> <Gold.PLP.ligand.torsion>
0.1870

> <Gold.PLP.Chemscore.Hbond>
1.7040

> <Gold.PLP.Chemscore.CHOScore>
0.0000

> <Gold.PLP.Chemscore.Metal>
0.0000

> <Gold.Chemscore.Hbonds>
donor molecule, donor type, donor heavy atom, donor atom, acceptor molecule, acceptor atom, score
      L1  H     9    31       P1  1227  0.70
      P1  H  2456  2461       L1    17  1.00

> <Gold.PLP.Chemscore.Internal.Correction>
0.0238

