#       Name:                EN300-18555_i001
#       Creating user name   fsindt
#       Creation time:       Tue Feb 28 04:06:42 2023


#       File generated by GOLD software.
#

@<TRIPOS>MOLECULE
EN300-18555_i001|acide_1|mol2|2798|dock7
    31    32     1
SMALL
USER_CHARGES


@<TRIPOS>ATOM
      1 C1           2.0217 -18.3056  14.9987 C.3            1 <1>                0.0000
      2 C2           1.5678 -17.8633  13.6315 C.2            1 <1>                0.0000
      3 O3           1.8024 -18.5532  12.6621 O.2            1 <1>                0.0000
      4 N4           0.9011 -16.7010  13.4861 N.am           1 <1>                0.0000
      5 C5           0.4598 -16.2710  12.1570 C.3            1 <1>                0.0000
      6 C6          -0.2432 -14.9165  12.2666 C.3            1 <1>                0.0000
      7 C7          -0.1132 -14.1760  10.9606 C.2            1 <1>                0.0000
      8 C8           0.5642 -14.5833   9.8756 C.2            1 <1>                0.0000
      9 N9           0.4568 -13.6499   8.8809 N.pl3          1 <1>                0.0000
     10 C10         -0.3119 -12.5922   9.3124 C.ar           1 <1>                0.0000
     11 C11         -0.7275 -11.4052   8.7183 C.ar           1 <1>                0.0000
     12 C12         -1.5141 -10.5238   9.4275 C.ar           1 <1>                0.0000
     13 C13         -1.8970 -10.8077  10.7309 C.ar           1 <1>                0.0000
     14 C14         -1.4995 -11.9677  11.3342 C.ar           1 <1>                0.0000
     15 C15         -0.7075 -12.8779  10.6320 C.ar           1 <1>                0.0000
     16 C16         -0.4966 -17.2891  11.5915 C.2            1 <1>                0.0000
     17 O17         -1.3645 -17.7697  12.3002 O.co2          1 <1>                0.0000
     18 O18         -0.4024 -17.6321  10.4253 O.co2          1 <1>               -1.0000
     19 H19          2.5394 -19.2615  14.9181 H              1 <1>                0.0000
     20 H20          2.6986 -17.5600  15.4158 H              1 <1>                0.0000
     21 H21          1.1556 -18.4155  15.6513 H              1 <1>                0.0000
     22 H22          1.3240 -16.1796  11.4992 H              1 <1>                0.0000
     23 H23         -1.2981 -15.0719  12.4928 H              1 <1>                0.0000
     24 H24          0.2168 -14.3317  13.0631 H              1 <1>                0.0000
     25 H25          1.1129 -15.5103   9.7992 H              1 <1>                0.0000
     26 H26         -0.4345 -11.1752   7.7045 H              1 <1>                0.0000
     27 H27         -1.8356  -9.6025   8.9645 H              1 <1>                0.0000
     28 H28         -2.5137 -10.1061  11.2729 H              1 <1>                0.0000
     29 H29         -1.8010 -12.1817  12.3489 H              1 <1>                0.0000
     30 H30          0.7135 -16.1492  14.2616 H              1 <1>                0.0000
     31 H31          0.8620 -13.7225   8.0025 H              1 <1>                0.0000
@<TRIPOS>BOND
    1    1    2 1     
    2    1   19 1     
    3    1   20 1     
    4    1   21 1     
    5    2    3 2     
    6    2    4 am    
    7    4    5 1     
    8    4   30 1     
    9    5    6 1     
   10    5   16 1     
   11    5   22 1     
   12    6    7 1     
   13    6   23 1     
   14    6   24 1     
   15    7    8 2     
   16    7   15 1     
   17    8    9 1     
   18    8   25 1     
   19    9   10 1     
   20    9   31 1     
   21   10   11 ar    
   22   10   15 ar    
   23   11   12 ar    
   24   11   26 1     
   25   12   13 ar    
   26   12   27 1     
   27   13   14 ar    
   28   13   28 1     
   29   14   15 ar    
   30   14   29 1     
   31   16   17 ar    
   32   16   18 ar    
@<TRIPOS>SUBSTRUCTURE
      1 ****           1
@<TRIPOS>SET
DONOR_HYDROGENS      STATIC     ATOMS    <user>   **** ""
2 30 31
ATOM$RED        STATIC     ATOMS    COLORGROUP SYSTEM
2 30 31
@<TRIPOS>COMMENT
> <Gold.Version>
2022.2.0

> <Gold.Id.Protein>
3pbl|protein|mol2

> <Gold.Protein.RotatedTorsions>
[ 1303 1298 1297 1294 ] final   -7.01 input  179.99 | X-H torsion
[ 2461 2456 2455 2452 ] final  149.20 input   30.03 | X-H torsion
[ 2515 2510 2509 2506 ] final  105.59 input  -89.99 | X-H torsion
[ 3721 3712 3711 3710 ] final   59.68 input -179.91 | X-H torsion
[ 3841 3832 3831 3830 ] final -153.61 input -179.91 | X-H torsion
[ 3767 3762 3761 3758 ] final   25.85 input  -89.99 | X-H torsion
[ 2472 2467 2466 2463 ] final  175.06 input  -89.97 | X-H torsion

> <Gold.Protein.ActiveResidues>
 VAL82   VAL86   LEU89   PHE106  VAL107  ASP110  VAL111  MET112  CYS114  THR115 
 CYS181  SER182  ILE183  PHE188  VAL189  ILE190  SER192  SER193  SER196  TRP342 
 PHE345  PHE346  HIS349  VAL350  TYR365  THR369  GLY372  TYR373 

> <Gold.Protein.RotatedAtoms>
    3.3557   -9.7776    3.9894 H   0  0  0  0  0  0  0  0  0  0  0  0  # atno 1303 bound_to 1298
    1.8788   -8.9743    8.3083 H   0  0  0  0  0  0  0  0  0  0  0  0  # atno 2461 bound_to 2456
   -5.3894   -5.3681    8.9528 H   0  0  0  0  0  0  0  0  0  0  0  0  # atno 2472 bound_to 2467
    2.0288   -7.9451    5.9834 H   0  0  0  0  0  0  0  0  0  0  0  0  # atno 2515 bound_to 2510
   -2.5896  -17.9101   13.3878 H   0  0  0  0  0  0  0  0  0  0  0  0  # atno 3721 bound_to 3712
   -5.0367  -23.0147   10.0633 H   0  0  0  0  0  0  0  0  0  0  0  0  # atno 3767 bound_to 3762
    2.6741  -19.7825    8.3475 H   0  0  0  0  0  0  0  0  0  0  0  0  # atno 3841 bound_to 3832
    4.3282   -8.4770    4.1598 LP  0  0  0  0  0  0  0  0  0  0  0  0  # atno 4297 bound_to 1298
    4.6786   -9.8666    4.9425 LP  0  0  0  0  0  0  0  0  0  0  0  0  # atno 4298 bound_to 1298
    1.5023   -7.9177    7.1212 LP  0  0  0  0  0  0  0  0  0  0  0  0  # atno 4299 bound_to 2456
    0.3568   -8.9162    7.7189 LP  0  0  0  0  0  0  0  0  0  0  0  0  # atno 4300 bound_to 2456
    2.6342   -7.8002    4.4740 LP  0  0  0  0  0  0  0  0  0  0  0  0  # atno 4301 bound_to 2510
    2.6339   -9.2540    5.2176 LP  0  0  0  0  0  0  0  0  0  0  0  0  # atno 4302 bound_to 2510
   -2.9867  -17.4147   14.8625 LP  0  0  0  0  0  0  0  0  0  0  0  0  # atno 4306 bound_to 3712
   -3.5513  -16.6340   13.5441 LP  0  0  0  0  0  0  0  0  0  0  0  0  # atno 4307 bound_to 3712
    2.7444  -21.1372    9.2053 LP  0  0  0  0  0  0  0  0  0  0  0  0  # atno 4314 bound_to 3832
    1.3959  -20.2163    9.2158 LP  0  0  0  0  0  0  0  0  0  0  0  0  # atno 4315 bound_to 3832
   -5.1794  -21.9158   11.2628 LP  0  0  0  0  0  0  0  0  0  0  0  0  # atno 4318 bound_to 3762
   -3.9114  -22.9446   11.2447 LP  0  0  0  0  0  0  0  0  0  0  0  0  # atno 4319 bound_to 3762
   -4.5624   -4.8104    7.6599 LP  0  0  0  0  0  0  0  0  0  0  0  0  # atno 4320 bound_to 2467
   -3.7653   -5.2152    9.0265 LP  0  0  0  0  0  0  0  0  0  0  0  0  # atno 4321 bound_to 2467

> <Gold.Score>
     Score     S(PLP)   S(hbond)     S(cho)   S(metal)  DE(clash)   DE(tors)     intcor
     53.80     -49.30       1.00       1.00       0.00       0.00       0.77       0.05

> <Gold.PLP.Fitness>
53.8005

> <Gold.PLP.PLP>
-49.3010

> <Gold.PLP.part.hbond>
-0.9062

> <Gold.PLP.part.metal>
0.0000

> <Gold.PLP.part.buried>
-6.2748

> <Gold.PLP.part.nonpolar>
-43.7460

> <Gold.PLP.part.repulsive>
0.2880

> <Gold.PLP.ligand.clash>
0.0000

> <Gold.PLP.ligand.torsion>
0.7742

> <Gold.PLP.Chemscore.Hbond>
1.0000

> <Gold.PLP.Chemscore.CHOScore>
1.0000

> <Gold.PLP.Chemscore.Metal>
0.0000

> <Gold.Chemscore.Hbonds>
donor molecule, donor type, donor heavy atom, donor atom, acceptor molecule, acceptor atom, score
      P1  H  3712  3721       L1    17  1.00
      L1  C     8    25       P1  1227  1.00

> <Gold.PLP.Chemscore.Internal.Correction>
0.0480

