#       Name:                EN300-18555_i001
#       Creating user name   fsindt
#       Creation time:       Tue Feb 28 04:06:38 2023


#       File generated by GOLD software.
#

@<TRIPOS>MOLECULE
EN300-18555_i001|acide_1|mol2|2798|dock3
    31    32     1
SMALL
USER_CHARGES


@<TRIPOS>ATOM
      1 C1          -4.3411 -10.1518  10.0197 C.3            1 <1>                0.0000
      2 C2          -3.0051 -10.7750  10.3326 C.2            1 <1>                0.0000
      3 O3          -2.4353 -10.5002  11.3673 O.2            1 <1>                0.0000
      4 N4          -2.4437 -11.6376   9.4626 N.am           1 <1>                0.0000
      5 C5          -1.1450 -12.2435   9.7668 C.3            1 <1>                0.0000
      6 C6          -1.2178 -12.9532  11.1202 C.3            1 <1>                0.0000
      7 C7          -0.1347 -13.9981  11.1984 C.2            1 <1>                0.0000
      8 C8           0.7855 -14.2663  10.2586 C.2            1 <1>                0.0000
      9 N9           1.6033 -15.2786  10.6817 N.pl3          1 <1>                0.0000
     10 C10          1.2195 -15.6971  11.9360 C.ar           1 <1>                0.0000
     11 C11          1.6956 -16.6704  12.8081 C.ar           1 <1>                0.0000
     12 C12          1.0822 -16.8554  14.0280 C.ar           1 <1>                0.0000
     13 C13         -0.0079 -16.0798  14.3970 C.ar           1 <1>                0.0000
     14 C14         -0.4924 -15.1182  13.5553 C.ar           1 <1>                0.0000
     15 C15          0.1177 -14.9095  12.3172 C.ar           1 <1>                0.0000
     16 C16         -0.0894 -11.1692   9.8191 C.2            1 <1>                0.0000
     17 O17          0.0000 -10.4497  10.7992 O.co2          1 <1>                0.0000
     18 O18          0.6751 -11.0197   8.8811 O.co2          1 <1>               -1.0000
     19 H19         -4.6316  -9.4873  10.8336 H              1 <1>                0.0000
     20 H20         -4.2682  -9.5816   9.0937 H              1 <1>                0.0000
     21 H21         -5.0899 -10.9355   9.9058 H              1 <1>                0.0000
     22 H22         -0.8904 -12.9656   8.9911 H              1 <1>                0.0000
     23 H23         -1.0792 -12.2257  11.9200 H              1 <1>                0.0000
     24 H24         -2.1916 -13.4308  11.2282 H              1 <1>                0.0000
     25 H25          0.8680 -13.7586   9.3090 H              1 <1>                0.0000
     26 H26          2.5432 -17.2793  12.5299 H              1 <1>                0.0000
     27 H27          1.4532 -17.6119  14.7036 H              1 <1>                0.0000
     28 H28         -0.4772 -16.2376  15.3567 H              1 <1>                0.0000
     29 H29         -1.3414 -14.5187  13.8491 H              1 <1>                0.0000
     30 H30         -2.8995 -11.8574   8.6350 H              1 <1>                0.0000
     31 H31          2.3431 -15.6465  10.1735 H              1 <1>                0.0000
@<TRIPOS>BOND
    1    1    2 1     
    2    1   19 1     
    3    1   20 1     
    4    1   21 1     
    5    2    3 2     
    6    2    4 am    
    7    4    5 1     
    8    4   30 1     
    9    5    6 1     
   10    5   16 1     
   11    5   22 1     
   12    6    7 1     
   13    6   23 1     
   14    6   24 1     
   15    7    8 2     
   16    7   15 1     
   17    8    9 1     
   18    8   25 1     
   19    9   10 1     
   20    9   31 1     
   21   10   11 ar    
   22   10   15 ar    
   23   11   12 ar    
   24   11   26 1     
   25   12   13 ar    
   26   12   27 1     
   27   13   14 ar    
   28   13   28 1     
   29   14   15 ar    
   30   14   29 1     
   31   16   17 ar    
   32   16   18 ar    
@<TRIPOS>SUBSTRUCTURE
      1 ****           1
@<TRIPOS>SET
DONOR_HYDROGENS      STATIC     ATOMS    <user>   **** ""
2 30 31
ATOM$RED        STATIC     ATOMS    COLORGROUP SYSTEM
2 30 31
@<TRIPOS>COMMENT
> <Gold.Version>
2022.2.0

> <Gold.Id.Protein>
3pbl|protein|mol2

> <Gold.Protein.RotatedTorsions>
[ 1303 1298 1297 1294 ] final   63.58 input  179.99 | X-H torsion
[ 2461 2456 2455 2452 ] final -130.24 input   30.03 | X-H torsion
[ 2515 2510 2509 2506 ] final  152.40 input  -89.99 | X-H torsion
[ 3721 3712 3711 3710 ] final   49.79 input -179.91 | X-H torsion
[ 3841 3832 3831 3830 ] final -134.65 input -179.91 | X-H torsion
[ 3767 3762 3761 3758 ] final -157.01 input  -89.99 | X-H torsion
[ 2472 2467 2466 2463 ] final  118.85 input  -89.97 | X-H torsion

> <Gold.Protein.ActiveResidues>
 VAL82   VAL86   LEU89   PHE106  VAL107  ASP110  VAL111  MET112  CYS114  THR115 
 CYS181  SER182  ILE183  PHE188  VAL189  ILE190  SER192  SER193  SER196  TRP342 
 PHE345  PHE346  HIS349  VAL350  TYR365  THR369  GLY372  TYR373 

> <Gold.Protein.RotatedAtoms>
    4.0572  -10.2645    4.6658 H   0  0  0  0  0  0  0  0  0  0  0  0  # atno 1303 bound_to 1298
    0.6972   -9.2326    8.1537 H   0  0  0  0  0  0  0  0  0  0  0  0  # atno 2461 bound_to 2456
   -5.4092   -5.0689    8.1166 H   0  0  0  0  0  0  0  0  0  0  0  0  # atno 2472 bound_to 2467
    2.1561   -8.6793    6.0570 H   0  0  0  0  0  0  0  0  0  0  0  0  # atno 2515 bound_to 2510
   -2.5428  -17.9719   13.5154 H   0  0  0  0  0  0  0  0  0  0  0  0  # atno 3721 bound_to 3712
   -4.3449  -22.2648   11.6487 H   0  0  0  0  0  0  0  0  0  0  0  0  # atno 3767 bound_to 3762
    2.4241  -19.6502    8.3839 H   0  0  0  0  0  0  0  0  0  0  0  0  # atno 3841 bound_to 3832
    3.4695   -9.0274    3.7767 LP  0  0  0  0  0  0  0  0  0  0  0  0  # atno 4297 bound_to 1298
    4.8356   -8.8291    4.6491 LP  0  0  0  0  0  0  0  0  0  0  0  0  # atno 4298 bound_to 1298
    2.1547   -8.5234    7.9540 LP  0  0  0  0  0  0  0  0  0  0  0  0  # atno 4299 bound_to 2456
    0.8857   -8.0524    7.0406 LP  0  0  0  0  0  0  0  0  0  0  0  0  # atno 4300 bound_to 2456
    2.3156   -7.4173    5.0334 LP  0  0  0  0  0  0  0  0  0  0  0  0  # atno 4301 bound_to 2510
    2.8252   -8.9024    4.5845 LP  0  0  0  0  0  0  0  0  0  0  0  0  # atno 4302 bound_to 2510
   -3.0688  -17.2717   14.8611 LP  0  0  0  0  0  0  0  0  0  0  0  0  # atno 4306 bound_to 3712
   -3.5231  -16.7058   13.3982 LP  0  0  0  0  0  0  0  0  0  0  0  0  # atno 4307 bound_to 3712
    2.9525  -21.0397    8.9891 LP  0  0  0  0  0  0  0  0  0  0  0  0  # atno 4314 bound_to 3832
    1.4767  -20.4667    9.3899 LP  0  0  0  0  0  0  0  0  0  0  0  0  # atno 4315 bound_to 3832
   -4.2721  -23.3357   10.4180 LP  0  0  0  0  0  0  0  0  0  0  0  0  # atno 4318 bound_to 3762
   -5.5102  -22.2744   10.5047 LP  0  0  0  0  0  0  0  0  0  0  0  0  # atno 4319 bound_to 3762
   -3.7875   -4.8796    8.0886 LP  0  0  0  0  0  0  0  0  0  0  0  0  # atno 4320 bound_to 2467
   -4.5204   -5.4450    9.4338 LP  0  0  0  0  0  0  0  0  0  0  0  0  # atno 4321 bound_to 2467

> <Gold.Score>
     Score     S(PLP)   S(hbond)     S(cho)   S(metal)  DE(clash)   DE(tors)     intcor
     57.04     -53.60       1.61       0.00       0.00       0.01       0.71       0.05

> <Gold.PLP.Fitness>
57.0430

> <Gold.PLP.PLP>
-53.6025

> <Gold.PLP.part.hbond>
-2.0000

> <Gold.PLP.part.metal>
0.0000

> <Gold.PLP.part.buried>
-6.4626

> <Gold.PLP.part.nonpolar>
-47.2237

> <Gold.PLP.part.repulsive>
0.0891

> <Gold.PLP.ligand.clash>
0.0097

> <Gold.PLP.ligand.torsion>
0.7109

> <Gold.PLP.Chemscore.Hbond>
1.6080

> <Gold.PLP.Chemscore.CHOScore>
0.0000

> <Gold.PLP.Chemscore.Metal>
0.0000

> <Gold.Chemscore.Hbonds>
donor molecule, donor type, donor heavy atom, donor atom, acceptor molecule, acceptor atom, score
      L1  H     9    31       P1  1227  0.61
      P1  H  2456  2461       L1    18  1.00

> <Gold.PLP.Chemscore.Internal.Correction>
0.0480

