#       Name:                EN300-18555_i001
#       Creating user name   fsindt
#       Creation time:       Tue Feb 28 04:06:53 2023


#       File generated by GOLD software.
#

@<TRIPOS>MOLECULE
EN300-18555_i001|acide_1|mol2|2798|dock19
    31    32     1
SMALL
USER_CHARGES


@<TRIPOS>ATOM
      1 C1          -0.1152 -14.5171   6.6017 C.3            1 <1>                0.0000
      2 C2           0.2941 -13.7992   7.8619 C.2            1 <1>                0.0000
      3 O3           1.4691 -13.6207   8.1036 O.2            1 <1>                0.0000
      4 N4          -0.6454 -13.3555   8.7202 N.am           1 <1>                0.0000
      5 C5          -0.2475 -12.6576   9.9452 C.3            1 <1>                0.0000
      6 C6          -0.6628 -13.4866  11.1623 C.3            1 <1>                0.0000
      7 C7           0.4298 -14.4687  11.4977 C.2            1 <1>                0.0000
      8 C8           1.5450 -14.6965  10.7860 C.2            1 <1>                0.0000
      9 N9           2.3023 -15.6567  11.3999 N.pl3          1 <1>                0.0000
     10 C10          1.6771 -16.0810  12.5509 C.ar           1 <1>                0.0000
     11 C11          2.0018 -17.0161  13.5280 C.ar           1 <1>                0.0000
     12 C12          1.1482 -17.2205  14.5902 C.ar           1 <1>                0.0000
     13 C13         -0.0347 -16.5023  14.6960 C.ar           1 <1>                0.0000
     14 C14         -0.3736 -15.5791  13.7470 C.ar           1 <1>                0.0000
     15 C15          0.4796 -15.3514  12.6658 C.ar           1 <1>                0.0000
     16 C16         -0.9242 -11.3122   9.9993 C.2            1 <1>                0.0000
     17 O17         -0.6952 -10.4797   9.1385 O.co2          1 <1>                0.0000
     18 O18         -1.7005 -11.0562  10.9039 O.co2          1 <1>               -1.0000
     19 H19          0.7746 -14.7982   6.0382 H              1 <1>                0.0000
     20 H20         -0.6792 -15.4131   6.8607 H              1 <1>                0.0000
     21 H21         -0.7370 -13.8593   5.9944 H              1 <1>                0.0000
     22 H22          0.8338 -12.5210   9.9506 H              1 <1>                0.0000
     23 H23         -0.8305 -12.8253  12.0123 H              1 <1>                0.0000
     24 H24         -1.5814 -14.0283  10.9366 H              1 <1>                0.0000
     25 H25          1.8057 -14.1961   9.8651 H              1 <1>                0.0000
     26 H26          2.9199 -17.5802  13.4544 H              1 <1>                0.0000
     27 H27          1.4019 -17.9472  15.3478 H              1 <1>                0.0000
     28 H28         -0.6927 -16.6746  15.5348 H              1 <1>                0.0000
     29 H29         -1.2959 -15.0243  13.8358 H              1 <1>                0.0000
     30 H30         -1.5852 -13.4983   8.5268 H              1 <1>                0.0000
     31 H31          3.1529 -15.9889  11.0728 H              1 <1>                0.0000
@<TRIPOS>BOND
    1    1    2 1     
    2    1   19 1     
    3    1   20 1     
    4    1   21 1     
    5    2    3 2     
    6    2    4 am    
    7    4    5 1     
    8    4   30 1     
    9    5    6 1     
   10    5   16 1     
   11    5   22 1     
   12    6    7 1     
   13    6   23 1     
   14    6   24 1     
   15    7    8 2     
   16    7   15 1     
   17    8    9 1     
   18    8   25 1     
   19    9   10 1     
   20    9   31 1     
   21   10   11 ar    
   22   10   15 ar    
   23   11   12 ar    
   24   11   26 1     
   25   12   13 ar    
   26   12   27 1     
   27   13   14 ar    
   28   13   28 1     
   29   14   15 ar    
   30   14   29 1     
   31   16   17 ar    
   32   16   18 ar    
@<TRIPOS>SUBSTRUCTURE
      1 ****           1
@<TRIPOS>SET
DONOR_HYDROGENS      STATIC     ATOMS    <user>   **** ""
2 30 31
ATOM$RED        STATIC     ATOMS    COLORGROUP SYSTEM
2 30 31
@<TRIPOS>COMMENT
> <Gold.Version>
2022.2.0

> <Gold.Id.Protein>
3pbl|protein|mol2

> <Gold.Protein.RotatedTorsions>
[ 1303 1298 1297 1294 ] final -158.54 input  179.99 | X-H torsion
[ 2461 2456 2455 2452 ] final -125.46 input   30.03 | X-H torsion
[ 2515 2510 2509 2506 ] final  -93.26 input  -89.99 | X-H torsion
[ 3721 3712 3711 3710 ] final  -34.95 input -179.91 | X-H torsion
[ 3841 3832 3831 3830 ] final   66.21 input -179.91 | X-H torsion
[ 3767 3762 3761 3758 ] final -169.22 input  -89.99 | X-H torsion
[ 2472 2467 2466 2463 ] final -171.58 input  -89.97 | X-H torsion

> <Gold.Protein.ActiveResidues>
 VAL82   VAL86   LEU89   PHE106  VAL107  ASP110  VAL111  MET112  CYS114  THR115 
 CYS181  SER182  ILE183  PHE188  VAL189  ILE190  SER192  SER193  SER196  TRP342 
 PHE345  PHE346  HIS349  VAL350  TYR365  THR369  GLY372  TYR373 

> <Gold.Protein.RotatedAtoms>
    4.6964   -8.6362    4.4782 H   0  0  0  0  0  0  0  0  0  0  0  0  # atno 1303 bound_to 1298
    0.6380   -9.2077    8.1082 H   0  0  0  0  0  0  0  0  0  0  0  0  # atno 2461 bound_to 2456
   -5.2609   -5.4157    9.1241 H   0  0  0  0  0  0  0  0  0  0  0  0  # atno 2472 bound_to 2467
    2.8142   -8.9712    4.6462 H   0  0  0  0  0  0  0  0  0  0  0  0  # atno 2515 bound_to 2510
   -2.6312  -17.6443   14.6324 H   0  0  0  0  0  0  0  0  0  0  0  0  # atno 3721 bound_to 3712
   -4.2020  -22.4025   11.6202 H   0  0  0  0  0  0  0  0  0  0  0  0  # atno 3767 bound_to 3762
    2.5540  -20.9542    9.4710 H   0  0  0  0  0  0  0  0  0  0  0  0  # atno 3841 bound_to 3832
    4.3026  -10.1867    4.8055 LP  0  0  0  0  0  0  0  0  0  0  0  0  # atno 4297 bound_to 1298
    3.3629   -9.2987    3.8079 LP  0  0  0  0  0  0  0  0  0  0  0  0  # atno 4298 bound_to 1298
    2.1425   -8.5804    8.0067 LP  0  0  0  0  0  0  0  0  0  0  0  0  # atno 4299 bound_to 2456
    0.9571   -8.0202    7.0333 LP  0  0  0  0  0  0  0  0  0  0  0  0  # atno 4300 bound_to 2456
    2.1281   -8.5932    6.0788 LP  0  0  0  0  0  0  0  0  0  0  0  0  # atno 4301 bound_to 2510
    2.3542   -7.4345    4.9506 LP  0  0  0  0  0  0  0  0  0  0  0  0  # atno 4302 bound_to 2510
   -3.5635  -16.5563   13.9078 LP  0  0  0  0  0  0  0  0  0  0  0  0  # atno 4306 bound_to 3712
   -2.9264  -17.7994   13.0619 LP  0  0  0  0  0  0  0  0  0  0  0  0  # atno 4307 bound_to 3712
    1.4242  -19.9399    8.9507 LP  0  0  0  0  0  0  0  0  0  0  0  0  # atno 4314 bound_to 3832
    2.8548  -20.0601    8.1725 LP  0  0  0  0  0  0  0  0  0  0  0  0  # atno 4315 bound_to 3832
   -4.4242  -23.3208   10.2882 LP  0  0  0  0  0  0  0  0  0  0  0  0  # atno 4318 bound_to 3762
   -5.5010  -22.1517   10.6629 LP  0  0  0  0  0  0  0  0  0  0  0  0  # atno 4319 bound_to 3762
   -4.7793   -4.8393    7.6742 LP  0  0  0  0  0  0  0  0  0  0  0  0  # atno 4320 bound_to 2467
   -3.6768   -5.1386    8.8410 LP  0  0  0  0  0  0  0  0  0  0  0  0  # atno 4321 bound_to 2467

> <Gold.Score>
     Score     S(PLP)   S(hbond)     S(cho)   S(metal)  DE(clash)   DE(tors)     intcor
     51.21     -48.75       1.08       0.00       0.00       0.00       0.40       0.02

> <Gold.PLP.Fitness>
51.2064

> <Gold.PLP.PLP>
-48.7491

> <Gold.PLP.part.hbond>
-2.0000

> <Gold.PLP.part.metal>
0.0000

> <Gold.PLP.part.buried>
-5.6308

> <Gold.PLP.part.nonpolar>
-41.9663

> <Gold.PLP.part.repulsive>
0.1591

> <Gold.PLP.ligand.clash>
0.0000

> <Gold.PLP.ligand.torsion>
0.3967

> <Gold.PLP.Chemscore.Hbond>
1.0756

> <Gold.PLP.Chemscore.CHOScore>
0.0000

> <Gold.PLP.Chemscore.Metal>
0.0000

> <Gold.Chemscore.Hbonds>
donor molecule, donor type, donor heavy atom, donor atom, acceptor molecule, acceptor atom, score
      L1  H     9    31       P1  1227  0.10
      P1  H  2456  2461       L1    17  0.98

> <Gold.PLP.Chemscore.Internal.Correction>
0.0238

