#       Name:                EN300-18555_i001
#       Creating user name   fsindt
#       Creation time:       Tue Feb 28 04:06:54 2023


#       File generated by GOLD software.
#

@<TRIPOS>MOLECULE
EN300-18555_i001|acide_1|mol2|2798|dock20
    31    32     1
SMALL
USER_CHARGES


@<TRIPOS>ATOM
      1 C1           3.7498 -17.3981  12.6313 C.3            1 <1>                0.0000
      2 C2           2.3791 -16.8309  12.8968 C.2            1 <1>                0.0000
      3 O3           2.1484 -16.2687  13.9464 O.2            1 <1>                0.0000
      4 N4           1.4097 -16.9484  11.9680 N.am           1 <1>                0.0000
      5 C5           0.0773 -16.3970  12.2260 C.3            1 <1>                0.0000
      6 C6           0.1792 -14.8815  12.4093 C.3            1 <1>                0.0000
      7 C7           0.1311 -14.2081  11.0621 C.2            1 <1>                0.0000
      8 C8           0.8146 -14.5684   9.9643 C.2            1 <1>                0.0000
      9 N9           0.5159 -13.7234   8.9304 N.pl3          1 <1>                0.0000
     10 C10         -0.3902 -12.7745   9.3481 C.ar           1 <1>                0.0000
     11 C11         -1.0149 -11.7039   8.7173 C.ar           1 <1>                0.0000
     12 C12         -1.8983 -10.9152   9.4219 C.ar           1 <1>                0.0000
     13 C13         -2.1720 -11.1778  10.7569 C.ar           1 <1>                0.0000
     14 C14         -1.5689 -12.2242  11.3964 C.ar           1 <1>                0.0000
     15 C15         -0.6755 -13.0400  10.7001 C.ar           1 <1>                0.0000
     16 C16         -0.4895 -17.0173  13.4771 C.2            1 <1>                0.0000
     17 O17         -0.6217 -16.3443  14.4851 O.co2          1 <1>                0.0000
     18 O18         -0.8157 -18.1921  13.4811 O.co2          1 <1>               -1.0000
     19 H19          4.3942 -17.2080  13.4897 H              1 <1>                0.0000
     20 H20          3.6727 -18.4727  12.4659 H              1 <1>                0.0000
     21 H21          4.1742 -16.9239  11.7465 H              1 <1>                0.0000
     22 H22         -0.5768 -16.6177  11.3826 H              1 <1>                0.0000
     23 H23         -0.6535 -14.5325  13.0200 H              1 <1>                0.0000
     24 H24          1.1195 -14.6377  12.9038 H              1 <1>                0.0000
     25 H25          1.4991 -15.4017   9.9060 H              1 <1>                0.0000
     26 H26         -0.8083 -11.4912   7.6788 H              1 <1>                0.0000
     27 H27         -2.3822 -10.0841   8.9304 H              1 <1>                0.0000
     28 H28         -2.8668 -10.5499  11.2948 H              1 <1>                0.0000
     29 H29         -1.7865 -12.4222  12.4356 H              1 <1>                0.0000
     30 H30          1.5943 -17.3981  11.1285 H              1 <1>                0.0000
     31 H31          0.8873 -13.7838   8.0363 H              1 <1>                0.0000
@<TRIPOS>BOND
    1    1    2 1     
    2    1   19 1     
    3    1   20 1     
    4    1   21 1     
    5    2    3 2     
    6    2    4 am    
    7    4    5 1     
    8    4   30 1     
    9    5    6 1     
   10    5   16 1     
   11    5   22 1     
   12    6    7 1     
   13    6   23 1     
   14    6   24 1     
   15    7    8 2     
   16    7   15 1     
   17    8    9 1     
   18    8   25 1     
   19    9   10 1     
   20    9   31 1     
   21   10   11 ar    
   22   10   15 ar    
   23   11   12 ar    
   24   11   26 1     
   25   12   13 ar    
   26   12   27 1     
   27   13   14 ar    
   28   13   28 1     
   29   14   15 ar    
   30   14   29 1     
   31   16   17 ar    
   32   16   18 ar    
@<TRIPOS>SUBSTRUCTURE
      1 ****           1
@<TRIPOS>SET
DONOR_HYDROGENS      STATIC     ATOMS    <user>   **** ""
2 30 31
ATOM$RED        STATIC     ATOMS    COLORGROUP SYSTEM
2 30 31
@<TRIPOS>COMMENT
> <Gold.Version>
2022.2.0

> <Gold.Id.Protein>
3pbl|protein|mol2

> <Gold.Protein.RotatedTorsions>
[ 1303 1298 1297 1294 ] final  175.57 input  179.99 | X-H torsion
[ 2461 2456 2455 2452 ] final  -42.14 input   30.03 | X-H torsion
[ 2515 2510 2509 2506 ] final  148.02 input  -89.99 | X-H torsion
[ 3721 3712 3711 3710 ] final   39.04 input -179.91 | X-H torsion
[ 3841 3832 3831 3830 ] final  173.77 input -179.91 | X-H torsion
[ 3767 3762 3761 3758 ] final   38.05 input  -89.99 | X-H torsion
[ 2472 2467 2466 2463 ] final -163.85 input  -89.97 | X-H torsion

> <Gold.Protein.ActiveResidues>
 VAL82   VAL86   LEU89   PHE106  VAL107  ASP110  VAL111  MET112  CYS114  THR115 
 CYS181  SER182  ILE183  PHE188  VAL189  ILE190  SER192  SER193  SER196  TRP342 
 PHE345  PHE346  HIS349  VAL350  TYR365  THR369  GLY372  TYR373 

> <Gold.Protein.RotatedAtoms>
    4.8755   -8.9340    4.7181 H   0  0  0  0  0  0  0  0  0  0  0  0  # atno 1303 bound_to 1298
    0.4952   -8.3518    7.2033 H   0  0  0  0  0  0  0  0  0  0  0  0  # atno 2461 bound_to 2456
   -5.1690   -5.4363    9.2095 H   0  0  0  0  0  0  0  0  0  0  0  0  # atno 2472 bound_to 2467
    2.1344   -8.6128    6.0743 H   0  0  0  0  0  0  0  0  0  0  0  0  # atno 2515 bound_to 2510
   -2.5042  -18.0158   13.6668 H   0  0  0  0  0  0  0  0  0  0  0  0  # atno 3721 bound_to 3712
   -4.8746  -23.1315   10.0790 H   0  0  0  0  0  0  0  0  0  0  0  0  # atno 3767 bound_to 3762
    3.0079  -20.1223    8.4451 H   0  0  0  0  0  0  0  0  0  0  0  0  # atno 3841 bound_to 3832
    3.9481  -10.2721    4.5923 LP  0  0  0  0  0  0  0  0  0  0  0  0  # atno 4297 bound_to 1298
    3.5383   -8.9154    3.7811 LP  0  0  0  0  0  0  0  0  0  0  0  0  # atno 4298 bound_to 1298
    1.1674   -9.2810    8.3662 LP  0  0  0  0  0  0  0  0  0  0  0  0  # atno 4299 bound_to 2456
    2.0749   -8.1753    7.5785 LP  0  0  0  0  0  0  0  0  0  0  0  0  # atno 4300 bound_to 2456
    2.3455   -7.4298    4.9690 LP  0  0  0  0  0  0  0  0  0  0  0  0  # atno 4301 bound_to 2510
    2.8170   -8.9564    4.6315 LP  0  0  0  0  0  0  0  0  0  0  0  0  # atno 4302 bound_to 2510
   -3.1587  -17.1200   14.8275 LP  0  0  0  0  0  0  0  0  0  0  0  0  # atno 4306 bound_to 3712
   -3.4779  -16.8067   13.2570 LP  0  0  0  0  0  0  0  0  0  0  0  0  # atno 4307 bound_to 3712
    2.2790  -21.1154    9.4739 LP  0  0  0  0  0  0  0  0  0  0  0  0  # atno 4314 bound_to 3832
    1.4757  -19.8456    8.8344 LP  0  0  0  0  0  0  0  0  0  0  0  0  # atno 4315 bound_to 3832
   -5.3061  -21.9405   11.1096 LP  0  0  0  0  0  0  0  0  0  0  0  0  # atno 4318 bound_to 3762
   -3.9467  -22.8033   11.3822 LP  0  0  0  0  0  0  0  0  0  0  0  0  # atno 4319 bound_to 3762
   -4.9005   -4.8635    7.7041 LP  0  0  0  0  0  0  0  0  0  0  0  0  # atno 4320 bound_to 2467
   -3.6475   -5.0938    8.7256 LP  0  0  0  0  0  0  0  0  0  0  0  0  # atno 4321 bound_to 2467

> <Gold.Score>
     Score     S(PLP)   S(hbond)     S(cho)   S(metal)  DE(clash)   DE(tors)     intcor
     55.62     -47.94       1.98       1.00       0.00       0.00       0.63       0.02

> <Gold.PLP.Fitness>
55.6244

> <Gold.PLP.PLP>
-47.9373

> <Gold.PLP.part.hbond>
-3.0000

> <Gold.PLP.part.metal>
0.0000

> <Gold.PLP.part.buried>
-2.5566

> <Gold.PLP.part.nonpolar>
-44.2807

> <Gold.PLP.part.repulsive>
0.1141

> <Gold.PLP.ligand.clash>
0.0000

> <Gold.PLP.ligand.torsion>
0.6291

> <Gold.PLP.Chemscore.Hbond>
1.9760

> <Gold.PLP.Chemscore.CHOScore>
1.0000

> <Gold.PLP.Chemscore.Metal>
0.0000

> <Gold.Chemscore.Hbonds>
donor molecule, donor type, donor heavy atom, donor atom, acceptor molecule, acceptor atom, score
      L1  H     4    30       P1  1227  0.98
      P1  H  3712  3721       L1    18  1.00
      L1  C     8    25       P1  1227  1.00

> <Gold.PLP.Chemscore.Internal.Correction>
0.0173

