#       Name:                EN300-378347_i001
#       Creating user name   fsindt
#       Creation time:       Tue Feb 28 13:45:06 2023


#       File generated by GOLD software.
#

@<TRIPOS>MOLECULE
EN300-378347_i001|amine_1|mol2|4665|dock5
    24    24     1
SMALL
USER_CHARGES


@<TRIPOS>ATOM
      1 C1          -1.3057 -11.5746  11.9428 C.3            1 <1>                0.0000
      2 C2          -0.7391 -10.9366  10.6728 C.3            1 <1>                0.0000
      3 C3           0.2795  -9.8604  11.0534 C.3            1 <1>                0.0000
      4 C4          -0.0644 -11.9941   9.8375 C.ar           1 <1>                0.0000
      5 C5           0.2633 -13.2123  10.3993 C.ar           1 <1>                0.0000
      6 C6           0.8847 -14.1868   9.6293 C.ar           1 <1>                0.0000
      7 N7           1.2168 -15.4218  10.1975 N.pl3          1 <1>                0.0000
      8 C8           1.1760 -13.9353   8.2953 C.ar           1 <1>                0.0000
      9 C9           0.8475 -12.7162   7.7351 C.ar           1 <1>                0.0000
     10 C10          0.2222 -11.7455   8.5032 C.ar           1 <1>                0.0000
     11 O11         -0.1012 -10.5456   7.9507 O.3            1 <1>                0.0000
     12 H12         -1.7937 -10.8097  12.5470 H              1 <1>                0.0000
     13 H13         -2.0314 -12.3414  11.6717 H              1 <1>                0.0000
     14 H14         -0.4956 -12.0271  12.5147 H              1 <1>                0.0000
     15 H15         -1.5494 -10.4842  10.1010 H              1 <1>                0.0000
     16 H16          1.0897 -10.3129  11.6252 H              1 <1>                0.0000
     17 H17          0.6831  -9.4059  10.1485 H              1 <1>                0.0000
     18 H18         -0.2086  -9.0955  11.6574 H              1 <1>                0.0000
     19 H19          0.0366 -13.4070  11.4371 H              1 <1>                0.0000
     20 H20          1.6596 -14.6924   7.6959 H              1 <1>                0.0000
     21 H21          1.0744 -12.5202   6.6975 H              1 <1>                0.0000
     22 H22          1.0129 -15.5974  11.1294 H              1 <1>                0.0000
     23 H23          1.6508 -16.1022   9.6595 H              1 <1>                0.0000
     24 H24          0.4799  -9.8203   8.2177 H              1 <1>                0.0000
@<TRIPOS>BOND
    1    1    2 1     
    2    1   12 1     
    3    1   13 1     
    4    1   14 1     
    5    2    3 1     
    6    2    4 1     
    7    2   15 1     
    8    3   16 1     
    9    3   17 1     
   10    3   18 1     
   11    4    5 ar    
   12    4   10 ar    
   13    5    6 ar    
   14    5   19 1     
   15    6    7 1     
   16    6    8 ar    
   17    7   22 1     
   18    7   23 1     
   19    8    9 ar    
   20    8   20 1     
   21    9   10 ar    
   22    9   21 1     
   23   10   11 1     
   24   11   24 1     
@<TRIPOS>SUBSTRUCTURE
      1 ****           1
@<TRIPOS>SET
DONOR_HYDROGENS      STATIC     ATOMS    <user>   **** ""
3 22 23 24
ATOM$RED        STATIC     ATOMS    COLORGROUP SYSTEM
3 22 23 24
@<TRIPOS>COMMENT
> <Gold.Version>
2022.2.0

> <Gold.Id.Protein>
3pbl|protein|mol2

> <Gold.Protein.RotatedTorsions>
[ 1303 1298 1297 1294 ] final  156.10 input  179.99 | X-H torsion
[ 2461 2456 2455 2452 ] final   71.25 input   30.03 | X-H torsion
[ 2515 2510 2509 2506 ] final  -62.06 input  -89.99 | X-H torsion
[ 3721 3712 3711 3710 ] final -113.60 input -179.91 | X-H torsion
[ 3841 3832 3831 3830 ] final  -64.14 input -179.91 | X-H torsion
[ 3767 3762 3761 3758 ] final  108.25 input  -89.99 | X-H torsion
[ 2472 2467 2466 2463 ] final  -86.04 input  -89.97 | X-H torsion

> <Gold.Protein.ActiveResidues>
 VAL82   VAL86   LEU89   PHE106  VAL107  ASP110  VAL111  MET112  CYS114  THR115 
 CYS181  SER182  ILE183  PHE188  VAL189  ILE190  SER192  SER193  SER196  TRP342 
 PHE345  PHE346  HIS349  VAL350  TYR365  THR369  GLY372  TYR373 

> <Gold.Protein.RotatedAtoms>
    4.9111   -9.2202    4.8539 H   0  0  0  0  0  0  0  0  0  0  0  0  # atno 1303 bound_to 1298
    2.0250   -8.1162    7.5021 H   0  0  0  0  0  0  0  0  0  0  0  0  # atno 2461 bound_to 2456
   -3.9912   -5.3260    9.2628 H   0  0  0  0  0  0  0  0  0  0  0  0  # atno 2472 bound_to 2467
    2.8266   -8.5325    4.3926 H   0  0  0  0  0  0  0  0  0  0  0  0  # atno 2515 bound_to 2510
   -3.1819  -16.7069   14.4797 H   0  0  0  0  0  0  0  0  0  0  0  0  # atno 3721 bound_to 3712
   -4.0264  -23.2651   10.7414 H   0  0  0  0  0  0  0  0  0  0  0  0  # atno 3767 bound_to 3762
    1.6354  -19.7758    8.9847 H   0  0  0  0  0  0  0  0  0  0  0  0  # atno 3841 bound_to 3832
    3.7006  -10.2171    4.3989 LP  0  0  0  0  0  0  0  0  0  0  0  0  # atno 4297 bound_to 1298
    3.7502   -8.6841    3.8385 LP  0  0  0  0  0  0  0  0  0  0  0  0  # atno 4298 bound_to 1298
    0.4401   -8.4270    7.2592 LP  0  0  0  0  0  0  0  0  0  0  0  0  # atno 4299 bound_to 2456
    1.2729   -9.2647    8.3868 LP  0  0  0  0  0  0  0  0  0  0  0  0  # atno 4300 bound_to 2456
    2.3096   -9.0153    5.8642 LP  0  0  0  0  0  0  0  0  0  0  0  0  # atno 4301 bound_to 2510
    2.1603   -7.4513    5.4188 LP  0  0  0  0  0  0  0  0  0  0  0  0  # atno 4302 bound_to 2510
   -3.2422  -17.2619   12.9743 LP  0  0  0  0  0  0  0  0  0  0  0  0  # atno 4306 bound_to 3712
   -2.6119  -18.1760   14.1718 LP  0  0  0  0  0  0  0  0  0  0  0  0  # atno 4307 bound_to 3712
    2.9845  -20.2265    8.2412 LP  0  0  0  0  0  0  0  0  0  0  0  0  # atno 4314 bound_to 3832
    2.3556  -21.1347    9.4438 LP  0  0  0  0  0  0  0  0  0  0  0  0  # atno 4315 bound_to 3832
   -5.4156  -22.5718   10.2350 LP  0  0  0  0  0  0  0  0  0  0  0  0  # atno 4318 bound_to 3762
   -4.6851  -22.0383   11.5946 LP  0  0  0  0  0  0  0  0  0  0  0  0  # atno 4319 bound_to 3762
   -5.5003   -5.2674    8.6418 LP  0  0  0  0  0  0  0  0  0  0  0  0  # atno 4320 bound_to 2467
   -4.2253   -4.8002    7.7347 LP  0  0  0  0  0  0  0  0  0  0  0  0  # atno 4321 bound_to 2467

> <Gold.Score>
     Score     S(PLP)   S(hbond)     S(cho)   S(metal)  DE(clash)   DE(tors)     intcor
     40.46     -35.57       1.99       0.00       0.00       0.24       0.42       0.00

> <Gold.PLP.Fitness>
40.4603

> <Gold.PLP.PLP>
-35.5687

> <Gold.PLP.part.hbond>
-1.7143

> <Gold.PLP.part.metal>
0.0000

> <Gold.PLP.part.buried>
-2.9602

> <Gold.PLP.part.nonpolar>
-31.7751

> <Gold.PLP.part.repulsive>
0.0094

> <Gold.PLP.ligand.clash>
0.2373

> <Gold.PLP.ligand.torsion>
0.4236

> <Gold.PLP.Chemscore.Hbond>
1.9920

> <Gold.PLP.Chemscore.CHOScore>
0.0000

> <Gold.PLP.Chemscore.Metal>
0.0000

> <Gold.Chemscore.Hbonds>
donor molecule, donor type, donor heavy atom, donor atom, acceptor molecule, acceptor atom, score
      L1  H     7    23       P1  1227  0.99
      L1  H    11    24       P1  2456  1.00

> <Gold.PLP.Chemscore.Internal.Correction>
0.0001

