#       Name:                EN300-378347_i001
#       Creating user name   fsindt
#       Creation time:       Tue Feb 28 13:45:12 2023


#       File generated by GOLD software.
#

@<TRIPOS>MOLECULE
EN300-378347_i001|amine_1|mol2|4665|dock17
    24    24     1
SMALL
USER_CHARGES


@<TRIPOS>ATOM
      1 C1          -2.9837 -11.3411   9.6406 C.3            1 <1>                0.0000
      2 C2          -1.4899 -11.0101   9.6494 C.3            1 <1>                0.0000
      3 C3          -1.2080  -9.9534  10.7193 C.3            1 <1>                0.0000
      4 C4          -0.7008 -12.2573   9.9548 C.ar           1 <1>                0.0000
      5 C5          -0.9150 -12.9371  11.1375 C.ar           1 <1>                0.0000
      6 C6          -0.1880 -14.0866  11.4186 C.ar           1 <1>                0.0000
      7 N7          -0.4046 -14.7765  12.6166 N.pl3          1 <1>                0.0000
      8 C8           0.7535 -14.5512  10.5100 C.ar           1 <1>                0.0000
      9 C9           0.9663 -13.8698   9.3275 C.ar           1 <1>                0.0000
     10 C10          0.2363 -12.7250   9.0452 C.ar           1 <1>                0.0000
     11 O11          0.4462 -12.0550   7.8805 O.3            1 <1>                0.0000
     12 H12         -3.5543 -10.4391   9.4197 H              1 <1>                0.0000
     13 H13         -3.1845 -12.0940   8.8784 H              1 <1>                0.0000
     14 H14         -3.2763 -11.7261  10.6175 H              1 <1>                0.0000
     15 H15         -1.1973 -10.6252   8.6725 H              1 <1>                0.0000
     16 H16         -1.5006 -10.3384  11.6962 H              1 <1>                0.0000
     17 H17         -0.1437  -9.7176  10.7256 H              1 <1>                0.0000
     18 H18         -1.7786  -9.0514  10.4984 H              1 <1>                0.0000
     19 H19         -1.6473 -12.5749  11.8438 H              1 <1>                0.0000
     20 H20          1.3195 -15.4448  10.7279 H              1 <1>                0.0000
     21 H21          1.6989 -14.2308   8.6207 H              1 <1>                0.0000
     22 H22         -1.0627 -14.4520  13.2510 H              1 <1>                0.0000
     23 H23          0.1032 -15.5794  12.8127 H              1 <1>                0.0000
     24 H24         -0.3140 -11.5372   7.5821 H              1 <1>                0.0000
@<TRIPOS>BOND
    1    1    2 1     
    2    1   12 1     
    3    1   13 1     
    4    1   14 1     
    5    2    3 1     
    6    2    4 1     
    7    2   15 1     
    8    3   16 1     
    9    3   17 1     
   10    3   18 1     
   11    4    5 ar    
   12    4   10 ar    
   13    5    6 ar    
   14    5   19 1     
   15    6    7 1     
   16    6    8 ar    
   17    7   22 1     
   18    7   23 1     
   19    8    9 ar    
   20    8   20 1     
   21    9   10 ar    
   22    9   21 1     
   23   10   11 1     
   24   11   24 1     
@<TRIPOS>SUBSTRUCTURE
      1 ****           1
@<TRIPOS>SET
DONOR_HYDROGENS      STATIC     ATOMS    <user>   **** ""
3 22 23 24
ATOM$RED        STATIC     ATOMS    COLORGROUP SYSTEM
3 22 23 24
@<TRIPOS>COMMENT
> <Gold.Version>
2022.2.0

> <Gold.Id.Protein>
3pbl|protein|mol2

> <Gold.Protein.RotatedTorsions>
[ 1303 1298 1297 1294 ] final  -71.27 input  179.99 | X-H torsion
[ 2461 2456 2455 2452 ] final   79.23 input   30.03 | X-H torsion
[ 2515 2510 2509 2506 ] final   42.19 input  -89.99 | X-H torsion
[ 3721 3712 3711 3710 ] final   57.74 input -179.91 | X-H torsion
[ 3841 3832 3831 3830 ] final   12.73 input -179.91 | X-H torsion
[ 3767 3762 3761 3758 ] final  -73.27 input  -89.99 | X-H torsion
[ 2472 2467 2466 2463 ] final   91.42 input  -89.97 | X-H torsion

> <Gold.Protein.ActiveResidues>
 VAL82   VAL86   LEU89   PHE106  VAL107  ASP110  VAL111  MET112  CYS114  THR115 
 CYS181  SER182  ILE183  PHE188  VAL189  ILE190  SER192  SER193  SER196  TRP342 
 PHE345  PHE346  HIS349  VAL350  TYR365  THR369  GLY372  TYR373 

> <Gold.Protein.RotatedAtoms>
    3.6062   -8.8265    3.7944 H   0  0  0  0  0  0  0  0  0  0  0  0  # atno 1303 bound_to 1298
    2.0843   -8.1882    7.5946 H   0  0  0  0  0  0  0  0  0  0  0  0  # atno 2461 bound_to 2456
   -5.1201   -4.9256    7.8071 H   0  0  0  0  0  0  0  0  0  0  0  0  # atno 2472 bound_to 2467
    2.2518   -7.4091    5.1809 H   0  0  0  0  0  0  0  0  0  0  0  0  # atno 2515 bound_to 2510
   -2.5796  -17.9238   13.4118 H   0  0  0  0  0  0  0  0  0  0  0  0  # atno 3721 bound_to 3712
   -5.3798  -21.9763   10.9929 H   0  0  0  0  0  0  0  0  0  0  0  0  # atno 3767 bound_to 3762
    1.8609  -20.6253    9.6057 H   0  0  0  0  0  0  0  0  0  0  0  0  # atno 3841 bound_to 3832
    4.8987   -9.0306    4.7711 LP  0  0  0  0  0  0  0  0  0  0  0  0  # atno 4297 bound_to 1298
    3.8574  -10.2644    4.5263 LP  0  0  0  0  0  0  0  0  0  0  0  0  # atno 4298 bound_to 1298
    0.5083   -8.3366    7.1927 LP  0  0  0  0  0  0  0  0  0  0  0  0  # atno 4299 bound_to 2456
    1.1455   -9.2832    8.3608 LP  0  0  0  0  0  0  0  0  0  0  0  0  # atno 4300 bound_to 2456
    2.8352   -8.7703    4.4934 LP  0  0  0  0  0  0  0  0  0  0  0  0  # atno 4301 bound_to 2510
    2.2099   -8.8202    6.0011 LP  0  0  0  0  0  0  0  0  0  0  0  0  # atno 4302 bound_to 2510
   -3.0026  -17.3866   14.8645 LP  0  0  0  0  0  0  0  0  0  0  0  0  # atno 4306 bound_to 3712
   -3.5468  -16.6464   13.5145 LP  0  0  0  0  0  0  0  0  0  0  0  0  # atno 4307 bound_to 3712
    1.9574  -19.6343    8.3469 LP  0  0  0  0  0  0  0  0  0  0  0  0  # atno 4314 bound_to 3832
    3.1223  -20.7456    8.6206 LP  0  0  0  0  0  0  0  0  0  0  0  0  # atno 4315 bound_to 3832
   -3.9931  -22.6973   11.4660 LP  0  0  0  0  0  0  0  0  0  0  0  0  # atno 4318 bound_to 3762
   -4.7547  -23.2012   10.1122 LP  0  0  0  0  0  0  0  0  0  0  0  0  # atno 4319 bound_to 3762
   -3.6393   -5.0081    8.4903 LP  0  0  0  0  0  0  0  0  0  0  0  0  # atno 4320 bound_to 2467
   -4.9576   -5.4599    9.3415 LP  0  0  0  0  0  0  0  0  0  0  0  0  # atno 4321 bound_to 2467

> <Gold.Score>
     Score     S(PLP)   S(hbond)     S(cho)   S(metal)  DE(clash)   DE(tors)     intcor
     35.84     -35.84       0.00       0.00       0.00       0.00       0.00       0.00

> <Gold.PLP.Fitness>
35.8385

> <Gold.PLP.PLP>
-35.8415

> <Gold.PLP.part.hbond>
0.0000

> <Gold.PLP.part.metal>
0.0000

> <Gold.PLP.part.buried>
-3.0927

> <Gold.PLP.part.nonpolar>
-33.5908

> <Gold.PLP.part.repulsive>
0.1056

> <Gold.PLP.ligand.clash>
0.0000

> <Gold.PLP.ligand.torsion>
0.0016

> <Gold.PLP.Chemscore.Hbond>
0.0000

> <Gold.PLP.Chemscore.CHOScore>
0.0000

> <Gold.PLP.Chemscore.Metal>
0.0000

> <Gold.PLP.Chemscore.Internal.Correction>
0.0001

