#       Name:                EN300-378347_i001
#       Creating user name   fsindt
#       Creation time:       Tue Feb 28 13:45:04 2023


#       File generated by GOLD software.
#

@<TRIPOS>MOLECULE
EN300-378347_i001|amine_1|mol2|4665|dock2
    24    24     1
SMALL
USER_CHARGES


@<TRIPOS>ATOM
      1 C1          -2.2860 -11.3650   9.5299 C.3            1 <1>                0.0000
      2 C2          -0.8397 -10.9334   9.2788 C.3            1 <1>                0.0000
      3 C3          -0.2045 -10.4869  10.5971 C.3            1 <1>                0.0000
      4 C4          -0.0606 -12.0927   8.7130 C.ar           1 <1>                0.0000
      5 C5          -0.0010 -13.2869   9.4037 C.ar           1 <1>                0.0000
      6 C6           0.7168 -14.3553   8.8820 C.ar           1 <1>                0.0000
      7 N7           0.7774 -15.5660   9.5809 N.pl3          1 <1>                0.0000
      8 C8           1.3738 -14.2216   7.6661 C.ar           1 <1>                0.0000
      9 C9           1.3130 -13.0262   6.9766 C.ar           1 <1>                0.0000
     10 C10          0.5918 -11.9615   7.4958 C.ar           1 <1>                0.0000
     11 O11          0.5322 -10.7851   6.8160 O.3            1 <1>                0.0000
     12 H12         -2.8495 -10.5265   9.9392 H              1 <1>                0.0000
     13 H13         -2.7385 -11.6832   8.5908 H              1 <1>                0.0000
     14 H14         -2.3002 -12.1929  10.2389 H              1 <1>                0.0000
     15 H15         -0.8256 -10.1055   8.5698 H              1 <1>                0.0000
     16 H16         -0.2187 -11.3147  11.3060 H              1 <1>                0.0000
     17 H17          0.8259 -10.1794  10.4182 H              1 <1>                0.0000
     18 H18         -0.7680  -9.6484  11.0063 H              1 <1>                0.0000
     19 H19         -0.5120 -13.3900  10.3495 H              1 <1>                0.0000
     20 H20          1.9324 -15.0517   7.2598 H              1 <1>                0.0000
     21 H21          1.8243 -12.9218   6.0310 H              1 <1>                0.0000
     22 H22          0.3180 -15.6593  10.4301 H              1 <1>                0.0000
     23 H23          1.2788 -16.3121   9.2162 H              1 <1>                0.0000
     24 H24          0.7594 -10.0110   7.3490 H              1 <1>                0.0000
@<TRIPOS>BOND
    1    1    2 1     
    2    1   12 1     
    3    1   13 1     
    4    1   14 1     
    5    2    3 1     
    6    2    4 1     
    7    2   15 1     
    8    3   16 1     
    9    3   17 1     
   10    3   18 1     
   11    4    5 ar    
   12    4   10 ar    
   13    5    6 ar    
   14    5   19 1     
   15    6    7 1     
   16    6    8 ar    
   17    7   22 1     
   18    7   23 1     
   19    8    9 ar    
   20    8   20 1     
   21    9   10 ar    
   22    9   21 1     
   23   10   11 1     
   24   11   24 1     
@<TRIPOS>SUBSTRUCTURE
      1 ****           1
@<TRIPOS>SET
DONOR_HYDROGENS      STATIC     ATOMS    <user>   **** ""
3 22 23 24
ATOM$RED        STATIC     ATOMS    COLORGROUP SYSTEM
3 22 23 24
@<TRIPOS>COMMENT
> <Gold.Version>
2022.2.0

> <Gold.Id.Protein>
3pbl|protein|mol2

> <Gold.Protein.RotatedTorsions>
[ 1303 1298 1297 1294 ] final  163.17 input  179.99 | X-H torsion
[ 2461 2456 2455 2452 ] final   37.43 input   30.03 | X-H torsion
[ 2515 2510 2509 2506 ] final -146.73 input  -89.99 | X-H torsion
[ 3721 3712 3711 3710 ] final   26.37 input -179.91 | X-H torsion
[ 3841 3832 3831 3830 ] final -136.43 input -179.91 | X-H torsion
[ 3767 3762 3761 3758 ] final -153.87 input  -89.99 | X-H torsion
[ 2472 2467 2466 2463 ] final  107.37 input  -89.97 | X-H torsion

> <Gold.Protein.ActiveResidues>
 VAL82   VAL86   LEU89   PHE106  VAL107  ASP110  VAL111  MET112  CYS114  THR115 
 CYS181  SER182  ILE183  PHE188  VAL189  ILE190  SER192  SER193  SER196  TRP342 
 PHE345  PHE346  HIS349  VAL350  TYR365  THR369  GLY372  TYR373 

> <Gold.Protein.RotatedAtoms>
    4.9086   -9.1124    4.8104 H   0  0  0  0  0  0  0  0  0  0  0  0  # atno 1303 bound_to 1298
    1.6255   -7.9293    7.1759 H   0  0  0  0  0  0  0  0  0  0  0  0  # atno 2461 bound_to 2456
   -5.3082   -5.0052    7.9707 H   0  0  0  0  0  0  0  0  0  0  0  0  # atno 2472 bound_to 2467
    2.5548   -9.2503    5.4038 H   0  0  0  0  0  0  0  0  0  0  0  0  # atno 2515 bound_to 2510
   -2.4768  -18.0344   13.8551 H   0  0  0  0  0  0  0  0  0  0  0  0  # atno 3721 bound_to 3712
   -4.3846  -22.2318   11.6502 H   0  0  0  0  0  0  0  0  0  0  0  0  # atno 3767 bound_to 3762
    2.4484  -19.6600    8.3776 H   0  0  0  0  0  0  0  0  0  0  0  0  # atno 3841 bound_to 3832
    3.7863  -10.2488    4.4708 LP  0  0  0  0  0  0  0  0  0  0  0  0  # atno 4297 bound_to 1298
    3.6669   -8.7602    3.8102 LP  0  0  0  0  0  0  0  0  0  0  0  0  # atno 4298 bound_to 1298
    0.3348   -8.8257    7.6208 LP  0  0  0  0  0  0  0  0  0  0  0  0  # atno 4299 bound_to 2456
    1.7775   -9.0529    8.3513 LP  0  0  0  0  0  0  0  0  0  0  0  0  # atno 4300 bound_to 2456
    2.0378   -7.7748    5.8745 LP  0  0  0  0  0  0  0  0  0  0  0  0  # atno 4301 bound_to 2510
    2.7041   -7.9736    4.3969 LP  0  0  0  0  0  0  0  0  0  0  0  0  # atno 4302 bound_to 2510
   -3.2611  -16.9538   14.7468 LP  0  0  0  0  0  0  0  0  0  0  0  0  # atno 4306 bound_to 3712
   -3.4070  -16.9515   13.1203 LP  0  0  0  0  0  0  0  0  0  0  0  0  # atno 4307 bound_to 3712
    2.9358  -21.0521    9.0105 LP  0  0  0  0  0  0  0  0  0  0  0  0  # atno 4314 bound_to 3832
    1.4653  -20.4430    9.3757 LP  0  0  0  0  0  0  0  0  0  0  0  0  # atno 4315 bound_to 3832
   -4.2360  -23.3343   10.4548 LP  0  0  0  0  0  0  0  0  0  0  0  0  # atno 4318 bound_to 3762
   -5.5067  -22.3088   10.4663 LP  0  0  0  0  0  0  0  0  0  0  0  0  # atno 4319 bound_to 3762
   -3.7011   -4.9279    8.2490 LP  0  0  0  0  0  0  0  0  0  0  0  0  # atno 4320 bound_to 2467
   -4.7077   -5.4604    9.4193 LP  0  0  0  0  0  0  0  0  0  0  0  0  # atno 4321 bound_to 2467

> <Gold.Score>
     Score     S(PLP)   S(hbond)     S(cho)   S(metal)  DE(clash)   DE(tors)     intcor
     43.84     -38.20       1.90       0.00       0.00       0.00       0.02       0.00

> <Gold.PLP.Fitness>
43.8441

> <Gold.PLP.PLP>
-38.2047

> <Gold.PLP.part.hbond>
-2.1748

> <Gold.PLP.part.metal>
0.0000

> <Gold.PLP.part.buried>
-1.6052

> <Gold.PLP.part.nonpolar>
-34.7357

> <Gold.PLP.part.repulsive>
0.0000

> <Gold.PLP.ligand.clash>
0.0000

> <Gold.PLP.ligand.torsion>
0.0244

> <Gold.PLP.Chemscore.Hbond>
1.8960

> <Gold.PLP.Chemscore.CHOScore>
0.0000

> <Gold.PLP.Chemscore.Metal>
0.0000

> <Gold.Chemscore.Hbonds>
donor molecule, donor type, donor heavy atom, donor atom, acceptor molecule, acceptor atom, score
      L1  H     7    23       P1  1227  0.90
      L1  H    11    24       P1  2456  1.00

> <Gold.PLP.Chemscore.Internal.Correction>
0.0002

