#       Name:                EN300-378347_i001
#       Creating user name   fsindt
#       Creation time:       Tue Feb 28 13:45:11 2023


#       File generated by GOLD software.
#

@<TRIPOS>MOLECULE
EN300-378347_i001|amine_1|mol2|4665|dock15
    24    24     1
SMALL
USER_CHARGES


@<TRIPOS>ATOM
      1 C1          -1.0088 -10.7358  11.6999 C.3            1 <1>                0.0000
      2 C2          -1.6346 -11.5123  10.5395 C.3            1 <1>                0.0000
      3 C3          -1.8758 -10.5645   9.3629 C.3            1 <1>                0.0000
      4 C4          -0.7014 -12.6159  10.1124 C.ar           1 <1>                0.0000
      5 C5          -0.1195 -12.5819   8.8605 C.ar           1 <1>                0.0000
      6 C6           0.7407 -13.5988   8.4673 C.ar           1 <1>                0.0000
      7 N7           1.3313 -13.5650   7.1992 N.pl3          1 <1>                0.0000
      8 C8           1.0149 -14.6489   9.3334 C.ar           1 <1>                0.0000
      9 C9           0.4319 -14.6812  10.5852 C.ar           1 <1>                0.0000
     10 C10         -0.4229 -13.6626  10.9791 C.ar           1 <1>                0.0000
     11 O11         -0.9962 -13.6951  12.2119 O.3            1 <1>                0.0000
     12 H12         -1.6837  -9.9376  12.0088 H              1 <1>                0.0000
     13 H13         -0.8369 -11.4111  12.5381 H              1 <1>                0.0000
     14 H14         -0.0599 -10.3056  11.3794 H              1 <1>                0.0000
     15 H15         -2.5834 -11.9425  10.8600 H              1 <1>                0.0000
     16 H16         -0.9269 -10.1343   9.0425 H              1 <1>                0.0000
     17 H17         -2.3216 -11.1176   8.5362 H              1 <1>                0.0000
     18 H18         -2.5507  -9.7663   9.6718 H              1 <1>                0.0000
     19 H19         -0.3335 -11.7649   8.1874 H              1 <1>                0.0000
     20 H20          1.6834 -15.4403   9.0283 H              1 <1>                0.0000
     21 H21          0.6447 -15.4981  11.2589 H              1 <1>                0.0000
     22 H22          1.1399 -12.8312   6.5944 H              1 <1>                0.0000
     23 H23          1.9321 -14.2755   6.9248 H              1 <1>                0.0000
     24 H24         -0.6040 -13.0777  12.8443 H              1 <1>                0.0000
@<TRIPOS>BOND
    1    1    2 1     
    2    1   12 1     
    3    1   13 1     
    4    1   14 1     
    5    2    3 1     
    6    2    4 1     
    7    2   15 1     
    8    3   16 1     
    9    3   17 1     
   10    3   18 1     
   11    4    5 ar    
   12    4   10 ar    
   13    5    6 ar    
   14    5   19 1     
   15    6    7 1     
   16    6    8 ar    
   17    7   22 1     
   18    7   23 1     
   19    8    9 ar    
   20    8   20 1     
   21    9   10 ar    
   22    9   21 1     
   23   10   11 1     
   24   11   24 1     
@<TRIPOS>SUBSTRUCTURE
      1 ****           1
@<TRIPOS>SET
DONOR_HYDROGENS      STATIC     ATOMS    <user>   **** ""
3 22 23 24
ATOM$RED        STATIC     ATOMS    COLORGROUP SYSTEM
3 22 23 24
@<TRIPOS>COMMENT
> <Gold.Version>
2022.2.0

> <Gold.Id.Protein>
3pbl|protein|mol2

> <Gold.Protein.RotatedTorsions>
[ 1303 1298 1297 1294 ] final  147.15 input  179.99 | X-H torsion
[ 2461 2456 2455 2452 ] final    5.65 input   30.03 | X-H torsion
[ 2515 2510 2509 2506 ] final  164.11 input  -89.99 | X-H torsion
[ 3721 3712 3711 3710 ] final -143.86 input -179.91 | X-H torsion
[ 3841 3832 3831 3830 ] final    8.25 input -179.91 | X-H torsion
[ 3767 3762 3761 3758 ] final -116.97 input  -89.99 | X-H torsion
[ 2472 2467 2466 2463 ] final  -35.41 input  -89.97 | X-H torsion

> <Gold.Protein.ActiveResidues>
 VAL82   VAL86   LEU89   PHE106  VAL107  ASP110  VAL111  MET112  CYS114  THR115 
 CYS181  SER182  ILE183  PHE188  VAL189  ILE190  SER192  SER193  SER196  TRP342 
 PHE345  PHE346  HIS349  VAL350  TYR365  THR369  GLY372  TYR373 

> <Gold.Protein.RotatedAtoms>
    4.8970   -9.3598    4.8983 H   0  0  0  0  0  0  0  0  0  0  0  0  # atno 1303 bound_to 1298
    1.1298   -7.9612    7.0346 H   0  0  0  0  0  0  0  0  0  0  0  0  # atno 2461 bound_to 2456
   -3.6346   -5.0463    8.5958 H   0  0  0  0  0  0  0  0  0  0  0  0  # atno 2472 bound_to 2467
    2.2215   -8.8461    5.9871 H   0  0  0  0  0  0  0  0  0  0  0  0  # atno 2515 bound_to 2510
   -3.3125  -16.5410   14.0799 H   0  0  0  0  0  0  0  0  0  0  0  0  # atno 3721 bound_to 3712
   -4.8902  -21.9549   11.4952 H   0  0  0  0  0  0  0  0  0  0  0  0  # atno 3767 bound_to 3762
    1.8141  -20.5782    9.5925 H   0  0  0  0  0  0  0  0  0  0  0  0  # atno 3841 bound_to 3832
    3.6013  -10.1586    4.3073 LP  0  0  0  0  0  0  0  0  0  0  0  0  # atno 4297 bound_to 1298
    3.8635   -8.6029    3.8858 LP  0  0  0  0  0  0  0  0  0  0  0  0  # atno 4298 bound_to 1298
    0.5177   -9.1339    7.9925 LP  0  0  0  0  0  0  0  0  0  0  0  0  # atno 4299 bound_to 2456
    2.0903   -8.7129    8.1208 LP  0  0  0  0  0  0  0  0  0  0  0  0  # atno 4300 bound_to 2456
    2.2396   -7.4102    5.2100 LP  0  0  0  0  0  0  0  0  0  0  0  0  # atno 4301 bound_to 2510
    2.8357   -8.7426    4.4778 LP  0  0  0  0  0  0  0  0  0  0  0  0  # atno 4302 bound_to 2510
   -2.9920  -17.6932   13.0087 LP  0  0  0  0  0  0  0  0  0  0  0  0  # atno 4306 bound_to 3712
   -2.7113  -17.9363   14.5989 LP  0  0  0  0  0  0  0  0  0  0  0  0  # atno 4307 bound_to 3712
    2.0221  -19.6369    8.3092 LP  0  0  0  0  0  0  0  0  0  0  0  0  # atno 4314 bound_to 3832
    3.1117  -20.7974    8.6736 LP  0  0  0  0  0  0  0  0  0  0  0  0  # atno 4315 bound_to 3832
   -3.9419  -23.1657   10.9460 LP  0  0  0  0  0  0  0  0  0  0  0  0  # atno 4318 bound_to 3762
   -5.2953  -22.7543   10.1300 LP  0  0  0  0  0  0  0  0  0  0  0  0  # atno 4319 bound_to 3762
   -5.0563   -5.4519    9.2892 LP  0  0  0  0  0  0  0  0  0  0  0  0  # atno 4320 bound_to 2467
   -5.0258   -4.8953    7.7542 LP  0  0  0  0  0  0  0  0  0  0  0  0  # atno 4321 bound_to 2467

> <Gold.Score>
     Score     S(PLP)   S(hbond)     S(cho)   S(metal)  DE(clash)   DE(tors)     intcor
     34.02     -35.17       0.00       0.00       0.00       1.03       0.06       0.00

> <Gold.PLP.Fitness>
34.0204

> <Gold.PLP.PLP>
-35.1724

> <Gold.PLP.part.hbond>
-0.9629

> <Gold.PLP.part.metal>
0.0000

> <Gold.PLP.part.buried>
-1.8985

> <Gold.PLP.part.nonpolar>
-33.2360

> <Gold.PLP.part.repulsive>
0.0404

> <Gold.PLP.ligand.clash>
1.0284

> <Gold.PLP.ligand.torsion>
0.0618

> <Gold.PLP.Chemscore.Hbond>
0.0000

> <Gold.PLP.Chemscore.CHOScore>
0.0000

> <Gold.PLP.Chemscore.Metal>
0.0000

> <Gold.PLP.Chemscore.Internal.Correction>
0.0001

