#       Name:                EN300-378347_i001
#       Creating user name   fsindt
#       Creation time:       Tue Feb 28 13:45:10 2023


#       File generated by GOLD software.
#

@<TRIPOS>MOLECULE
EN300-378347_i001|amine_1|mol2|4665|dock13
    24    24     1
SMALL
USER_CHARGES


@<TRIPOS>ATOM
      1 C1           2.0346 -15.3212  11.5450 C.3            1 <1>                0.0000
      2 C2           0.6510 -15.3480  10.8924 C.3            1 <1>                0.0000
      3 C3          -0.4018 -14.9056  11.9105 C.3            1 <1>                0.0000
      4 C4           0.6339 -14.4107   9.7124 C.ar           1 <1>                0.0000
      5 C5           0.7080 -13.0466   9.9135 C.ar           1 <1>                0.0000
      6 C6           0.6927 -12.1830   8.8259 C.ar           1 <1>                0.0000
      7 N7           0.7682 -10.8005   9.0286 N.pl3          1 <1>                0.0000
      8 C8           0.6028 -12.6921   7.5373 C.ar           1 <1>                0.0000
      9 C9           0.5287 -14.0570   7.3381 C.ar           1 <1>                0.0000
     10 C10          0.5494 -14.9189   8.4244 C.ar           1 <1>                0.0000
     11 O11          0.4768 -16.2626   8.2273 O.3            1 <1>                0.0000
     12 H12          2.0469 -15.9991  12.3985 H              1 <1>                0.0000
     13 H13          2.7847 -15.6363  10.8197 H              1 <1>                0.0000
     14 H14          2.2578 -14.3088  11.8819 H              1 <1>                0.0000
     15 H15          0.4279 -16.3604  10.5555 H              1 <1>                0.0000
     16 H16         -0.1786 -13.8932  12.2474 H              1 <1>                0.0000
     17 H17         -1.3875 -14.9247  11.4455 H              1 <1>                0.0000
     18 H18         -0.3895 -15.5835  12.7639 H              1 <1>                0.0000
     19 H19          0.7776 -12.6514  10.9161 H              1 <1>                0.0000
     20 H20          0.5904 -12.0213   6.6911 H              1 <1>                0.0000
     21 H21          0.4584 -14.4533   6.3359 H              1 <1>                0.0000
     22 H22          0.8314 -10.4450   9.9289 H              1 <1>                0.0000
     23 H23          0.7575 -10.1975   8.2688 H              1 <1>                0.0000
     24 H24          1.1537 -16.7664   8.6994 H              1 <1>                0.0000
@<TRIPOS>BOND
    1    1    2 1     
    2    1   12 1     
    3    1   13 1     
    4    1   14 1     
    5    2    3 1     
    6    2    4 1     
    7    2   15 1     
    8    3   16 1     
    9    3   17 1     
   10    3   18 1     
   11    4    5 ar    
   12    4   10 ar    
   13    5    6 ar    
   14    5   19 1     
   15    6    7 1     
   16    6    8 ar    
   17    7   22 1     
   18    7   23 1     
   19    8    9 ar    
   20    8   20 1     
   21    9   10 ar    
   22    9   21 1     
   23   10   11 1     
   24   11   24 1     
@<TRIPOS>SUBSTRUCTURE
      1 ****           1
@<TRIPOS>SET
DONOR_HYDROGENS      STATIC     ATOMS    <user>   **** ""
3 22 23 24
ATOM$RED        STATIC     ATOMS    COLORGROUP SYSTEM
3 22 23 24
@<TRIPOS>COMMENT
> <Gold.Version>
2022.2.0

> <Gold.Id.Protein>
3pbl|protein|mol2

> <Gold.Protein.RotatedTorsions>
[ 1303 1298 1297 1294 ] final   70.16 input  179.99 | X-H torsion
[ 2461 2456 2455 2452 ] final   58.25 input   30.03 | X-H torsion
[ 2515 2510 2509 2506 ] final -117.32 input  -89.99 | X-H torsion
[ 3721 3712 3711 3710 ] final  161.25 input -179.91 | X-H torsion
[ 3841 3832 3831 3830 ] final  169.95 input -179.91 | X-H torsion
[ 3767 3762 3761 3758 ] final  -76.66 input  -89.99 | X-H torsion
[ 2472 2467 2466 2463 ] final  154.12 input  -89.97 | X-H torsion

> <Gold.Protein.ActiveResidues>
 VAL82   VAL86   LEU89   PHE106  VAL107  ASP110  VAL111  MET112  CYS114  THR115 
 CYS181  SER182  ILE183  PHE188  VAL189  ILE190  SER192  SER193  SER196  TRP342 
 PHE345  PHE346  HIS349  VAL350  TYR365  THR369  GLY372  TYR373 

> <Gold.Protein.RotatedAtoms>
    4.1479  -10.2455    4.7215 H   0  0  0  0  0  0  0  0  0  0  0  0  # atno 1303 bound_to 1298
    1.8969   -8.0199    7.3611 H   0  0  0  0  0  0  0  0  0  0  0  0  # atno 2461 bound_to 2456
   -5.4999   -5.2690    8.6441 H   0  0  0  0  0  0  0  0  0  0  0  0  # atno 2472 bound_to 2467
    2.7278   -9.1884    4.9620 H   0  0  0  0  0  0  0  0  0  0  0  0  # atno 2515 bound_to 2510
   -3.2609  -16.7504   13.3110 H   0  0  0  0  0  0  0  0  0  0  0  0  # atno 3721 bound_to 3712
   -5.3527  -21.9602   11.0389 H   0  0  0  0  0  0  0  0  0  0  0  0  # atno 3767 bound_to 3762
    3.0349  -20.1675    8.4688 H   0  0  0  0  0  0  0  0  0  0  0  0  # atno 3841 bound_to 3832
    3.4223   -9.1246    3.7816 LP  0  0  0  0  0  0  0  0  0  0  0  0  # atno 4297 bound_to 1298
    4.7920   -8.7509    4.5884 LP  0  0  0  0  0  0  0  0  0  0  0  0  # atno 4298 bound_to 1298
    0.3631   -8.5806    7.3858 LP  0  0  0  0  0  0  0  0  0  0  0  0  # atno 4299 bound_to 2456
    1.4779   -9.2075    8.4011 LP  0  0  0  0  0  0  0  0  0  0  0  0  # atno 4300 bound_to 2456
    2.0463   -8.2087    6.0763 LP  0  0  0  0  0  0  0  0  0  0  0  0  # atno 4301 bound_to 2510
    2.5225   -7.6016    4.6371 LP  0  0  0  0  0  0  0  0  0  0  0  0  # atno 4302 bound_to 2510
   -2.6474  -18.1955   13.6474 LP  0  0  0  0  0  0  0  0  0  0  0  0  # atno 4306 bound_to 3712
   -3.1155  -17.1922   14.8478 LP  0  0  0  0  0  0  0  0  0  0  0  0  # atno 4307 bound_to 3712
    2.2211  -21.0971    9.4934 LP  0  0  0  0  0  0  0  0  0  0  0  0  # atno 4314 bound_to 3832
    1.5025  -19.8118    8.7875 LP  0  0  0  0  0  0  0  0  0  0  0  0  # atno 4315 bound_to 3832
   -3.9730  -22.7390   11.4349 LP  0  0  0  0  0  0  0  0  0  0  0  0  # atno 4318 bound_to 3762
   -4.8019  -23.1756   10.0974 LP  0  0  0  0  0  0  0  0  0  0  0  0  # atno 4319 bound_to 3762
   -4.2280   -4.8001    7.7336 LP  0  0  0  0  0  0  0  0  0  0  0  0  # atno 4320 bound_to 2467
   -3.9892   -5.3245    9.2615 LP  0  0  0  0  0  0  0  0  0  0  0  0  # atno 4321 bound_to 2467

> <Gold.Score>
     Score     S(PLP)   S(hbond)     S(cho)   S(metal)  DE(clash)   DE(tors)     intcor
     37.88     -32.98       1.74       0.00       0.00       0.00       0.15       0.00

> <Gold.PLP.Fitness>
37.8787

> <Gold.PLP.PLP>
-32.9761

> <Gold.PLP.part.hbond>
-2.0000

> <Gold.PLP.part.metal>
0.0000

> <Gold.PLP.part.buried>
-1.1456

> <Gold.PLP.part.nonpolar>
-30.1019

> <Gold.PLP.part.repulsive>
0.0000

> <Gold.PLP.ligand.clash>
0.0000

> <Gold.PLP.ligand.torsion>
0.1527

> <Gold.PLP.Chemscore.Hbond>
1.7360

> <Gold.PLP.Chemscore.CHOScore>
0.0000

> <Gold.PLP.Chemscore.Metal>
0.0000

> <Gold.Chemscore.Hbonds>
donor molecule, donor type, donor heavy atom, donor atom, acceptor molecule, acceptor atom, score
      L1  H     7    23       P1  2456  0.74
      L1  H    11    24       P1  1227  1.00

> <Gold.PLP.Chemscore.Internal.Correction>
0.0001

