#       Name:                EN300-378347_i001
#       Creating user name   fsindt
#       Creation time:       Tue Feb 28 13:45:09 2023


#       File generated by GOLD software.
#

@<TRIPOS>MOLECULE
EN300-378347_i001|amine_1|mol2|4665|dock11
    24    24     1
SMALL
USER_CHARGES


@<TRIPOS>ATOM
      1 C1          -1.6031  -9.6960  10.2114 C.3            1 <1>                0.0000
      2 C2          -2.1765 -11.0728  10.5533 C.3            1 <1>                0.0000
      3 C3          -3.5492 -11.2309   9.8966 C.3            1 <1>                0.0000
      4 C4          -1.2484 -12.1445  10.0419 C.ar           1 <1>                0.0000
      5 C5          -0.9004 -12.1762   8.7060 C.ar           1 <1>                0.0000
      6 C6          -0.0449 -13.1636   8.2350 C.ar           1 <1>                0.0000
      7 N7           0.3088 -13.1963   6.8815 N.pl3          1 <1>                0.0000
      8 C8           0.4597 -14.1181   9.1080 C.ar           1 <1>                0.0000
      9 C9           0.1104 -14.0848  10.4440 C.ar           1 <1>                0.0000
     10 C10         -0.7398 -13.0953  10.9145 C.ar           1 <1>                0.0000
     11 O11         -1.0828 -13.0631  12.2301 O.3            1 <1>                0.0000
     12 H12         -2.2743  -8.9209  10.5812 H              1 <1>                0.0000
     13 H13         -0.6251  -9.5833  10.6791 H              1 <1>                0.0000
     14 H14         -1.5015  -9.6031   9.1301 H              1 <1>                0.0000
     15 H15         -2.2780 -11.1657  11.6346 H              1 <1>                0.0000
     16 H16         -3.4476 -11.1380   8.8153 H              1 <1>                0.0000
     17 H17         -3.9577 -12.2118  10.1402 H              1 <1>                0.0000
     18 H18         -4.2204 -10.4559  10.2665 H              1 <1>                0.0000
     19 H19         -1.2936 -11.4335   8.0276 H              1 <1>                0.0000
     20 H20          1.1248 -14.8866   8.7426 H              1 <1>                0.0000
     21 H21          0.5025 -14.8274  11.1232 H              1 <1>                0.0000
     22 H22         -0.0435 -12.5292   6.2719 H              1 <1>                0.0000
     23 H23          0.9064 -13.8861   6.5529 H              1 <1>                0.0000
     24 H24         -1.9689 -13.4037  12.4139 H              1 <1>                0.0000
@<TRIPOS>BOND
    1    1    2 1     
    2    1   12 1     
    3    1   13 1     
    4    1   14 1     
    5    2    3 1     
    6    2    4 1     
    7    2   15 1     
    8    3   16 1     
    9    3   17 1     
   10    3   18 1     
   11    4    5 ar    
   12    4   10 ar    
   13    5    6 ar    
   14    5   19 1     
   15    6    7 1     
   16    6    8 ar    
   17    7   22 1     
   18    7   23 1     
   19    8    9 ar    
   20    8   20 1     
   21    9   10 ar    
   22    9   21 1     
   23   10   11 1     
   24   11   24 1     
@<TRIPOS>SUBSTRUCTURE
      1 ****           1
@<TRIPOS>SET
DONOR_HYDROGENS      STATIC     ATOMS    <user>   **** ""
3 22 23 24
ATOM$RED        STATIC     ATOMS    COLORGROUP SYSTEM
3 22 23 24
@<TRIPOS>COMMENT
> <Gold.Version>
2022.2.0

> <Gold.Id.Protein>
3pbl|protein|mol2

> <Gold.Protein.RotatedTorsions>
[ 1303 1298 1297 1294 ] final  160.57 input  179.99 | X-H torsion
[ 2461 2456 2455 2452 ] final -105.28 input   30.03 | X-H torsion
[ 2515 2510 2509 2506 ] final   53.36 input  -89.99 | X-H torsion
[ 3721 3712 3711 3710 ] final -108.45 input -179.91 | X-H torsion
[ 3841 3832 3831 3830 ] final -123.95 input -179.91 | X-H torsion
[ 3767 3762 3761 3758 ] final  101.24 input  -89.99 | X-H torsion
[ 2472 2467 2466 2463 ] final   16.83 input  -89.97 | X-H torsion

> <Gold.Protein.ActiveResidues>
 VAL82   VAL86   LEU89   PHE106  VAL107  ASP110  VAL111  MET112  CYS114  THR115 
 CYS181  SER182  ILE183  PHE188  VAL189  ILE190  SER192  SER193  SER196  TRP342 
 PHE345  PHE346  HIS349  VAL350  TYR365  THR369  GLY372  TYR373 

> <Gold.Protein.RotatedAtoms>
    4.9110   -9.1517    4.8272 H   0  0  0  0  0  0  0  0  0  0  0  0  # atno 1303 bound_to 1298
    0.4391   -9.0590    7.8902 H   0  0  0  0  0  0  0  0  0  0  0  0  # atno 2461 bound_to 2456
   -3.9841   -4.8254    7.8760 H   0  0  0  0  0  0  0  0  0  0  0  0  # atno 2472 bound_to 2467
    2.1853   -7.4322    5.3504 H   0  0  0  0  0  0  0  0  0  0  0  0  # atno 2515 bound_to 2510
   -3.1508  -16.7527   14.5343 H   0  0  0  0  0  0  0  0  0  0  0  0  # atno 3721 bound_to 3712
   -4.0830  -23.2979   10.6465 H   0  0  0  0  0  0  0  0  0  0  0  0  # atno 3767 bound_to 3762
    2.2775  -19.6045    8.4338 H   0  0  0  0  0  0  0  0  0  0  0  0  # atno 3841 bound_to 3832
    3.7541  -10.2387    4.4445 LP  0  0  0  0  0  0  0  0  0  0  0  0  # atno 4297 bound_to 1298
    3.6968   -8.7311    3.8197 LP  0  0  0  0  0  0  0  0  0  0  0  0  # atno 4298 bound_to 1298
    2.0240   -8.8183    8.2029 LP  0  0  0  0  0  0  0  0  0  0  0  0  # atno 4299 bound_to 2456
    1.2744   -7.9311    7.0550 LP  0  0  0  0  0  0  0  0  0  0  0  0  # atno 4300 bound_to 2456
    2.8322   -8.6040    4.4154 LP  0  0  0  0  0  0  0  0  0  0  0  0  # atno 4301 bound_to 2510
    2.2794   -8.9633    5.9094 LP  0  0  0  0  0  0  0  0  0  0  0  0  # atno 4302 bound_to 2510
   -3.2824  -17.1886   12.9947 LP  0  0  0  0  0  0  0  0  0  0  0  0  # atno 4306 bound_to 3712
   -2.6077  -18.1963   14.0883 LP  0  0  0  0  0  0  0  0  0  0  0  0  # atno 4307 bound_to 3712
    3.0377  -20.9528    8.8585 LP  0  0  0  0  0  0  0  0  0  0  0  0  # atno 4314 bound_to 3832
    1.5608  -20.6063    9.4628 LP  0  0  0  0  0  0  0  0  0  0  0  0  # atno 4315 bound_to 3832
   -5.4566  -22.4858   10.2997 LP  0  0  0  0  0  0  0  0  0  0  0  0  # atno 4318 bound_to 3762
   -4.5875  -22.0916   11.6248 LP  0  0  0  0  0  0  0  0  0  0  0  0  # atno 4319 bound_to 3762
   -4.2338   -5.3961    9.3855 LP  0  0  0  0  0  0  0  0  0  0  0  0  # atno 4320 bound_to 2467
   -5.4989   -5.1720    8.3775 LP  0  0  0  0  0  0  0  0  0  0  0  0  # atno 4321 bound_to 2467

> <Gold.Score>
     Score     S(PLP)   S(hbond)     S(cho)   S(metal)  DE(clash)   DE(tors)     intcor
     38.14     -38.20       0.00       0.00       0.00       0.00       0.03       0.00

> <Gold.PLP.Fitness>
38.1407

> <Gold.PLP.PLP>
-38.2011

> <Gold.PLP.part.hbond>
-1.0000

> <Gold.PLP.part.metal>
0.0000

> <Gold.PLP.part.buried>
-1.5422

> <Gold.PLP.part.nonpolar>
-37.0541

> <Gold.PLP.part.repulsive>
0.0000

> <Gold.PLP.ligand.clash>
0.0000

> <Gold.PLP.ligand.torsion>
0.0302

> <Gold.PLP.Chemscore.Hbond>
0.0000

> <Gold.PLP.Chemscore.CHOScore>
0.0000

> <Gold.PLP.Chemscore.Metal>
0.0000

> <Gold.PLP.Chemscore.Internal.Correction>
0.0001

