#       Name:                EN300-378347_i001
#       Creating user name   fsindt
#       Creation time:       Tue Feb 28 13:45:05 2023


#       File generated by GOLD software.
#

@<TRIPOS>MOLECULE
EN300-378347_i001|amine_1|mol2|4665|dock3
    24    24     1
SMALL
USER_CHARGES


@<TRIPOS>ATOM
      1 C1           0.6807 -14.8891  11.2976 C.3            1 <1>                0.0000
      2 C2          -0.3986 -14.1823  10.4750 C.3            1 <1>                0.0000
      3 C3          -0.8280 -12.9004  11.1913 C.3            1 <1>                0.0000
      4 C4           0.1515 -13.8377   9.1149 C.ar           1 <1>                0.0000
      5 C5           0.3604 -12.5171   8.7693 C.ar           1 <1>                0.0000
      6 C6           0.8677 -12.1998   7.5161 C.ar           1 <1>                0.0000
      7 N7           1.0802 -10.8620   7.1650 N.pl3          1 <1>                0.0000
      8 C8           1.1645 -13.2107   6.6117 C.ar           1 <1>                0.0000
      9 C9           0.9549 -14.5310   6.9592 C.ar           1 <1>                0.0000
     10 C10          0.4531 -14.8473   8.2128 C.ar           1 <1>                0.0000
     11 O11          0.2475 -16.1476   8.5543 O.3            1 <1>                0.0000
     12 H12          0.2828 -15.1383  12.2813 H              1 <1>                0.0000
     13 H13          0.9866 -15.8024  10.7872 H              1 <1>                0.0000
     14 H14          1.5415 -14.2300  11.4102 H              1 <1>                0.0000
     15 H15         -1.2594 -14.8414  10.3624 H              1 <1>                0.0000
     16 H16          0.0329 -12.2413  11.3039 H              1 <1>                0.0000
     17 H17         -1.5969 -12.3968  10.6053 H              1 <1>                0.0000
     18 H18         -1.2259 -13.1496  12.1750 H              1 <1>                0.0000
     19 H19          0.1290 -11.7314   9.4732 H              1 <1>                0.0000
     20 H20          1.5587 -12.9648   5.6368 H              1 <1>                0.0000
     21 H21          1.1853 -15.3176   6.2558 H              1 <1>                0.0000
     22 H22          0.8732 -10.1559   7.7970 H              1 <1>                0.0000
     23 H23          1.4346 -10.6406   6.2896 H              1 <1>                0.0000
     24 H24          0.9400 -16.5209   9.1164 H              1 <1>                0.0000
@<TRIPOS>BOND
    1    1    2 1     
    2    1   12 1     
    3    1   13 1     
    4    1   14 1     
    5    2    3 1     
    6    2    4 1     
    7    2   15 1     
    8    3   16 1     
    9    3   17 1     
   10    3   18 1     
   11    4    5 ar    
   12    4   10 ar    
   13    5    6 ar    
   14    5   19 1     
   15    6    7 1     
   16    6    8 ar    
   17    7   22 1     
   18    7   23 1     
   19    8    9 ar    
   20    8   20 1     
   21    9   10 ar    
   22    9   21 1     
   23   10   11 1     
   24   11   24 1     
@<TRIPOS>SUBSTRUCTURE
      1 ****           1
@<TRIPOS>SET
DONOR_HYDROGENS      STATIC     ATOMS    <user>   **** ""
3 22 23 24
ATOM$RED        STATIC     ATOMS    COLORGROUP SYSTEM
3 22 23 24
@<TRIPOS>COMMENT
> <Gold.Version>
2022.2.0

> <Gold.Id.Protein>
3pbl|protein|mol2

> <Gold.Protein.RotatedTorsions>
[ 1303 1298 1297 1294 ] final   58.36 input  179.99 | X-H torsion
[ 2461 2456 2455 2452 ] final   15.83 input   30.03 | X-H torsion
[ 2515 2510 2509 2506 ] final -167.88 input  -89.99 | X-H torsion
[ 3721 3712 3711 3710 ] final -158.76 input -179.91 | X-H torsion
[ 3841 3832 3831 3830 ] final -130.32 input -179.91 | X-H torsion
[ 3767 3762 3761 3758 ] final  -84.68 input  -89.99 | X-H torsion
[ 2472 2467 2466 2463 ] final  121.48 input  -89.97 | X-H torsion

> <Gold.Protein.ActiveResidues>
 VAL82   VAL86   LEU89   PHE106  VAL107  ASP110  VAL111  MET112  CYS114  THR115 
 CYS181  SER182  ILE183  PHE188  VAL189  ILE190  SER192  SER193  SER196  TRP342 
 PHE345  PHE346  HIS349  VAL350  TYR365  THR369  GLY372  TYR373 

> <Gold.Protein.RotatedAtoms>
    3.9857  -10.2712    4.6187 H   0  0  0  0  0  0  0  0  0  0  0  0  # atno 1303 bound_to 1298
    1.2921   -7.9283    7.0585 H   0  0  0  0  0  0  0  0  0  0  0  0  # atno 2461 bound_to 2456
   -5.4277   -5.0839    8.1527 H   0  0  0  0  0  0  0  0  0  0  0  0  # atno 2472 bound_to 2467
    2.4078   -9.1471    5.6994 H   0  0  0  0  0  0  0  0  0  0  0  0  # atno 2515 bound_to 2510
   -3.3371  -16.5327   13.8567 H   0  0  0  0  0  0  0  0  0  0  0  0  # atno 3721 bound_to 3712
   -5.2796  -21.9315   11.1449 H   0  0  0  0  0  0  0  0  0  0  0  0  # atno 3767 bound_to 3762
    2.3649  -19.6291    8.4016 H   0  0  0  0  0  0  0  0  0  0  0  0  # atno 3841 bound_to 3832
    3.5130   -8.9534    3.7782 LP  0  0  0  0  0  0  0  0  0  0  0  0  # atno 4297 bound_to 1298
    4.8635   -8.8964    4.6946 LP  0  0  0  0  0  0  0  0  0  0  0  0  # atno 4298 bound_to 1298
    0.4312   -9.0489    7.8773 LP  0  0  0  0  0  0  0  0  0  0  0  0  # atno 4299 bound_to 2456
    2.0145   -8.8308    8.2122 LP  0  0  0  0  0  0  0  0  0  0  0  0  # atno 4300 bound_to 2456
    2.0955   -7.5464    5.6210 LP  0  0  0  0  0  0  0  0  0  0  0  0  # atno 4301 bound_to 2510
    2.7934   -8.3052    4.3546 LP  0  0  0  0  0  0  0  0  0  0  0  0  # atno 4302 bound_to 2510
   -2.8741  -17.8817   13.1194 LP  0  0  0  0  0  0  0  0  0  0  0  0  # atno 4306 bound_to 3712
   -2.8008  -17.7572   14.7459 LP  0  0  0  0  0  0  0  0  0  0  0  0  # atno 4307 bound_to 3712
    2.9900  -21.0071    8.9367 LP  0  0  0  0  0  0  0  0  0  0  0  0  # atno 4314 bound_to 3832
    1.5076  -20.5237    9.4218 LP  0  0  0  0  0  0  0  0  0  0  0  0  # atno 4315 bound_to 3832
   -3.9358  -22.8358   11.3534 LP  0  0  0  0  0  0  0  0  0  0  0  0  # atno 4318 bound_to 3762
   -4.9122  -23.1075   10.0730 LP  0  0  0  0  0  0  0  0  0  0  0  0  # atno 4319 bound_to 3762
   -3.8119   -4.8699    8.0542 LP  0  0  0  0  0  0  0  0  0  0  0  0  # atno 4320 bound_to 2467
   -4.4775   -5.4397    9.4322 LP  0  0  0  0  0  0  0  0  0  0  0  0  # atno 4321 bound_to 2467

> <Gold.Score>
     Score     S(PLP)   S(hbond)     S(cho)   S(metal)  DE(clash)   DE(tors)     intcor
     40.28     -36.19       1.75       0.00       0.00       0.91       0.13       0.00

> <Gold.PLP.Fitness>
40.2787

> <Gold.PLP.PLP>
-36.1870

> <Gold.PLP.part.hbond>
-2.0552

> <Gold.PLP.part.metal>
0.0000

> <Gold.PLP.part.buried>
-4.2272

> <Gold.PLP.part.nonpolar>
-30.3368

> <Gold.PLP.part.repulsive>
0.0000

> <Gold.PLP.ligand.clash>
0.9068

> <Gold.PLP.ligand.torsion>
0.1288

> <Gold.PLP.Chemscore.Hbond>
1.7520

> <Gold.PLP.Chemscore.CHOScore>
0.0000

> <Gold.PLP.Chemscore.Metal>
0.0000

> <Gold.Chemscore.Hbonds>
donor molecule, donor type, donor heavy atom, donor atom, acceptor molecule, acceptor atom, score
      L1  H     7    22       P1  2456  0.75
      L1  H    11    24       P1  1227  1.00

> <Gold.PLP.Chemscore.Internal.Correction>
0.0002

