#       Name:                EN300-378347_i001
#       Creating user name   fsindt
#       Creation time:       Tue Feb 28 13:45:08 2023


#       File generated by GOLD software.
#

@<TRIPOS>MOLECULE
EN300-378347_i001|amine_1|mol2|4665|dock10
    24    24     1
SMALL
USER_CHARGES


@<TRIPOS>ATOM
      1 C1          -2.2163 -11.5755  10.1674 C.3            1 <1>                0.0000
      2 C2          -0.8449 -12.1658  10.5019 C.3            1 <1>                0.0000
      3 C3          -1.0013 -13.2404  11.5796 C.3            1 <1>                0.0000
      4 C4          -0.2468 -12.7804   9.2626 C.ar           1 <1>                0.0000
      5 C5          -0.0533 -14.1459   9.1939 C.ar           1 <1>                0.0000
      6 C6           0.4975 -14.7121   8.0517 C.ar           1 <1>                0.0000
      7 N7           0.6936 -16.0958   7.9809 N.pl3          1 <1>                0.0000
      8 C8           0.8532 -13.9045   6.9797 C.ar           1 <1>                0.0000
      9 C9           0.6589 -12.5388   7.0503 C.ar           1 <1>                0.0000
     10 C10          0.1040 -11.9747   8.1892 C.ar           1 <1>                0.0000
     11 O11         -0.0873 -10.6300   8.2576 O.3            1 <1>                0.0000
     12 H12         -2.6489 -11.1310  11.0638 H              1 <1>                0.0000
     13 H13         -2.1050 -10.8100   9.3996 H              1 <1>                0.0000
     14 H14         -2.8721 -12.3652   9.8007 H              1 <1>                0.0000
     15 H15         -0.1892 -11.3760  10.8686 H              1 <1>                0.0000
     16 H16         -1.6571 -14.0301  11.2129 H              1 <1>                0.0000
     17 H17         -0.0242 -13.6609  11.8179 H              1 <1>                0.0000
     18 H18         -1.4338 -12.7959  12.4759 H              1 <1>                0.0000
     19 H19         -0.3300 -14.7733  10.0283 H              1 <1>                0.0000
     20 H20          1.2820 -14.3439   6.0912 H              1 <1>                0.0000
     21 H21          0.9359 -11.9103   6.2167 H              1 <1>                0.0000
     22 H22          0.4447 -16.6599   8.7297 H              1 <1>                0.0000
     23 H23          1.0783 -16.4910   7.1829 H              1 <1>                0.0000
     24 H24         -0.8653 -10.3690   8.7690 H              1 <1>                0.0000
@<TRIPOS>BOND
    1    1    2 1     
    2    1   12 1     
    3    1   13 1     
    4    1   14 1     
    5    2    3 1     
    6    2    4 1     
    7    2   15 1     
    8    3   16 1     
    9    3   17 1     
   10    3   18 1     
   11    4    5 ar    
   12    4   10 ar    
   13    5    6 ar    
   14    5   19 1     
   15    6    7 1     
   16    6    8 ar    
   17    7   22 1     
   18    7   23 1     
   19    8    9 ar    
   20    8   20 1     
   21    9   10 ar    
   22    9   21 1     
   23   10   11 1     
   24   11   24 1     
@<TRIPOS>SUBSTRUCTURE
      1 ****           1
@<TRIPOS>SET
DONOR_HYDROGENS      STATIC     ATOMS    <user>   **** ""
3 22 23 24
ATOM$RED        STATIC     ATOMS    COLORGROUP SYSTEM
3 22 23 24
@<TRIPOS>COMMENT
> <Gold.Version>
2022.2.0

> <Gold.Id.Protein>
3pbl|protein|mol2

> <Gold.Protein.RotatedTorsions>
[ 1303 1298 1297 1294 ] final   79.03 input  179.99 | X-H torsion
[ 2461 2456 2455 2452 ] final -123.12 input   30.03 | X-H torsion
[ 2515 2510 2509 2506 ] final  158.65 input  -89.99 | X-H torsion
[ 3721 3712 3711 3710 ] final  -33.08 input -179.91 | X-H torsion
[ 3841 3832 3831 3830 ] final  130.26 input -179.91 | X-H torsion
[ 3767 3762 3761 3758 ] final -174.31 input  -89.99 | X-H torsion
[ 2472 2467 2466 2463 ] final -138.56 input  -89.97 | X-H torsion

> <Gold.Protein.ActiveResidues>
 VAL82   VAL86   LEU89   PHE106  VAL107  ASP110  VAL111  MET112  CYS114  THR115 
 CYS181  SER182  ILE183  PHE188  VAL189  ILE190  SER192  SER193  SER196  TRP342 
 PHE345  PHE346  HIS349  VAL350  TYR365  THR369  GLY372  TYR373 

> <Gold.Protein.RotatedAtoms>
    4.2695  -10.2018    4.7890 H   0  0  0  0  0  0  0  0  0  0  0  0  # atno 1303 bound_to 1298
    0.6105   -9.1940    8.0849 H   0  0  0  0  0  0  0  0  0  0  0  0  # atno 2461 bound_to 2456
   -4.8028   -5.4639    9.3979 H   0  0  0  0  0  0  0  0  0  0  0  0  # atno 2472 bound_to 2467
    2.1897   -8.7706    6.0238 H   0  0  0  0  0  0  0  0  0  0  0  0  # atno 2515 bound_to 2510
   -2.6204  -17.6655   14.6174 H   0  0  0  0  0  0  0  0  0  0  0  0  # atno 3721 bound_to 3712
   -4.1488  -22.4632   11.5980 H   0  0  0  0  0  0  0  0  0  0  0  0  # atno 3767 bound_to 3762
    3.1197  -20.6258    8.8267 H   0  0  0  0  0  0  0  0  0  0  0  0  # atno 3841 bound_to 3832
    3.3733   -9.2607    3.8004 LP  0  0  0  0  0  0  0  0  0  0  0  0  # atno 4297 bound_to 1298
    4.7193   -8.6585    4.5021 LP  0  0  0  0  0  0  0  0  0  0  0  0  # atno 4298 bound_to 1298
    2.1342   -8.6085    8.0319 LP  0  0  0  0  0  0  0  0  0  0  0  0  # atno 4299 bound_to 2456
    0.9928   -8.0059    7.0315 LP  0  0  0  0  0  0  0  0  0  0  0  0  # atno 4300 bound_to 2456
    2.2742   -7.4087    5.1271 LP  0  0  0  0  0  0  0  0  0  0  0  0  # atno 4301 bound_to 2510
    2.8329   -8.8196    4.5239 LP  0  0  0  0  0  0  0  0  0  0  0  0  # atno 4302 bound_to 2510
   -3.5612  -16.5555   13.9389 LP  0  0  0  0  0  0  0  0  0  0  0  0  # atno 4306 bound_to 3712
   -2.9412  -17.7757   13.0481 LP  0  0  0  0  0  0  0  0  0  0  0  0  # atno 4307 bound_to 3712
    1.6752  -20.7451    9.5162 LP  0  0  0  0  0  0  0  0  0  0  0  0  # atno 4314 bound_to 3832
    1.9505  -19.6343    8.3512 LP  0  0  0  0  0  0  0  0  0  0  0  0  # atno 4315 bound_to 3832
   -4.4918  -23.3052   10.2414 LP  0  0  0  0  0  0  0  0  0  0  0  0  # atno 4318 bound_to 3762
   -5.4865  -22.1066   10.7320 LP  0  0  0  0  0  0  0  0  0  0  0  0  # atno 4319 bound_to 3762
   -5.2443   -4.9734    7.9042 LP  0  0  0  0  0  0  0  0  0  0  0  0  # atno 4320 bound_to 2467
   -3.6698   -4.9562    8.3372 LP  0  0  0  0  0  0  0  0  0  0  0  0  # atno 4321 bound_to 2467

> <Gold.Score>
     Score     S(PLP)   S(hbond)     S(cho)   S(metal)  DE(clash)   DE(tors)     intcor
     40.82     -38.97       1.00       0.00       0.00       1.01       0.07       0.00

> <Gold.PLP.Fitness>
40.8168

> <Gold.PLP.PLP>
-38.9706

> <Gold.PLP.part.hbond>
-1.9988

> <Gold.PLP.part.metal>
0.0000

> <Gold.PLP.part.buried>
-3.7860

> <Gold.PLP.part.nonpolar>
-33.9138

> <Gold.PLP.part.repulsive>
0.0000

> <Gold.PLP.ligand.clash>
1.0078

> <Gold.PLP.ligand.torsion>
0.0730

> <Gold.PLP.Chemscore.Hbond>
1.0000

> <Gold.PLP.Chemscore.CHOScore>
0.0000

> <Gold.PLP.Chemscore.Metal>
0.0000

> <Gold.Chemscore.Hbonds>
donor molecule, donor type, donor heavy atom, donor atom, acceptor molecule, acceptor atom, score
      P1  H  2456  2461       L1    11  1.00

> <Gold.PLP.Chemscore.Internal.Correction>
0.0001

