#       Name:                EN300-378347_i001
#       Creating user name   fsindt
#       Creation time:       Tue Feb 28 13:45:07 2023


#       File generated by GOLD software.
#

@<TRIPOS>MOLECULE
EN300-378347_i001|amine_1|mol2|4665|dock8
    24    24     1
SMALL
USER_CHARGES


@<TRIPOS>ATOM
      1 C1          -0.6895  -9.9801  11.1242 C.3            1 <1>                0.0000
      2 C2          -1.4775 -11.2271  10.7180 C.3            1 <1>                0.0000
      3 C3          -2.6997 -10.8128   9.8962 C.3            1 <1>                0.0000
      4 C4          -0.5984 -12.1296   9.8910 C.ar           1 <1>                0.0000
      5 C5          -0.1365 -11.7049   8.6609 C.ar           1 <1>                0.0000
      6 C6           0.6739 -12.5366   7.8992 C.ar           1 <1>                0.0000
      7 N7           1.1430 -12.1069   6.6528 N.pl3          1 <1>                0.0000
      8 C8           1.0189 -13.7945   8.3752 C.ar           1 <1>                0.0000
      9 C9           0.5558 -14.2176   9.6058 C.ar           1 <1>                0.0000
     10 C10         -0.2491 -13.3844  10.3682 C.ar           1 <1>                0.0000
     11 O11         -0.7043 -13.8017  11.5800 O.3            1 <1>                0.0000
     12 H12         -1.3253  -9.3273  11.7223 H              1 <1>                0.0000
     13 H13          0.1813 -10.2752  11.7096 H              1 <1>                0.0000
     14 H14         -0.3630  -9.4493  10.2298 H              1 <1>                0.0000
     15 H15         -1.8039 -11.7578  11.6124 H              1 <1>                0.0000
     16 H16         -2.3733 -10.2820   9.0018 H              1 <1>                0.0000
     17 H17         -3.2612 -11.7013   9.6069 H              1 <1>                0.0000
     18 H18         -3.3355 -10.1601  10.4944 H              1 <1>                0.0000
     19 H19         -0.4055 -10.7265   8.2913 H              1 <1>                0.0000
     20 H20          1.6487 -14.4420   7.7833 H              1 <1>                0.0000
     21 H21          0.8237 -15.1962   9.9761 H              1 <1>                0.0000
     22 H22          0.9022 -11.2280   6.3206 H              1 <1>                0.0000
     23 H23          1.7091 -12.6881   6.1209 H              1 <1>                0.0000
     24 H24         -0.6249 -14.7547  11.7230 H              1 <1>                0.0000
@<TRIPOS>BOND
    1    1    2 1     
    2    1   12 1     
    3    1   13 1     
    4    1   14 1     
    5    2    3 1     
    6    2    4 1     
    7    2   15 1     
    8    3   16 1     
    9    3   17 1     
   10    3   18 1     
   11    4    5 ar    
   12    4   10 ar    
   13    5    6 ar    
   14    5   19 1     
   15    6    7 1     
   16    6    8 ar    
   17    7   22 1     
   18    7   23 1     
   19    8    9 ar    
   20    8   20 1     
   21    9   10 ar    
   22    9   21 1     
   23   10   11 1     
   24   11   24 1     
@<TRIPOS>SUBSTRUCTURE
      1 ****           1
@<TRIPOS>SET
DONOR_HYDROGENS      STATIC     ATOMS    <user>   **** ""
3 22 23 24
ATOM$RED        STATIC     ATOMS    COLORGROUP SYSTEM
3 22 23 24
@<TRIPOS>COMMENT
> <Gold.Version>
2022.2.0

> <Gold.Id.Protein>
3pbl|protein|mol2

> <Gold.Protein.RotatedTorsions>
[ 1303 1298 1297 1294 ] final -175.35 input  179.99 | X-H torsion
[ 2461 2456 2455 2452 ] final   49.66 input   30.03 | X-H torsion
[ 2515 2510 2509 2506 ] final  -70.56 input  -89.99 | X-H torsion
[ 3721 3712 3711 3710 ] final   44.74 input -179.91 | X-H torsion
[ 3841 3832 3831 3830 ] final  158.58 input -179.91 | X-H torsion
[ 3767 3762 3761 3758 ] final -150.80 input  -89.99 | X-H torsion
[ 2472 2467 2466 2463 ] final  -92.07 input  -89.97 | X-H torsion

> <Gold.Protein.ActiveResidues>
 VAL82   VAL86   LEU89   PHE106  VAL107  ASP110  VAL111  MET112  CYS114  THR115 
 CYS181  SER182  ILE183  PHE188  VAL189  ILE190  SER192  SER193  SER196  TRP342 
 PHE345  PHE346  HIS349  VAL350  TYR365  THR369  GLY372  TYR373 

> <Gold.Protein.RotatedAtoms>
    4.8287   -8.8159    4.6398 H   0  0  0  0  0  0  0  0  0  0  0  0  # atno 1303 bound_to 1298
    1.7934   -7.9724    7.2775 H   0  0  0  0  0  0  0  0  0  0  0  0  # atno 2461 bound_to 2456
   -4.0717   -5.3532    9.3138 H   0  0  0  0  0  0  0  0  0  0  0  0  # atno 2472 bound_to 2467
    2.8350   -8.6637    4.4398 H   0  0  0  0  0  0  0  0  0  0  0  0  # atno 2515 bound_to 2510
   -2.5230  -17.9957   13.5852 H   0  0  0  0  0  0  0  0  0  0  0  0  # atno 3721 bound_to 3712
   -4.4244  -22.2005   11.6495 H   0  0  0  0  0  0  0  0  0  0  0  0  # atno 3767 bound_to 3762
    3.0964  -20.3037    8.5527 H   0  0  0  0  0  0  0  0  0  0  0  0  # atno 3841 bound_to 3832
    4.0721  -10.2626    4.6748 LP  0  0  0  0  0  0  0  0  0  0  0  0  # atno 4297 bound_to 1298
    3.4611   -9.0430    3.7769 LP  0  0  0  0  0  0  0  0  0  0  0  0  # atno 4298 bound_to 1298
    0.3369   -8.6833    7.4792 LP  0  0  0  0  0  0  0  0  0  0  0  0  # atno 4299 bound_to 2456
    1.6077   -9.1523    8.3913 LP  0  0  0  0  0  0  0  0  0  0  0  0  # atno 4300 bound_to 2456
    2.2542   -8.9155    5.9448 LP  0  0  0  0  0  0  0  0  0  0  0  0  # atno 4301 bound_to 2510
    2.2074   -7.4198    5.2911 LP  0  0  0  0  0  0  0  0  0  0  0  0  # atno 4302 bound_to 2510
   -3.1112  -17.1996   14.8494 LP  0  0  0  0  0  0  0  0  0  0  0  0  # atno 4306 bound_to 3712
   -3.5037  -16.7504   13.3293 LP  0  0  0  0  0  0  0  0  0  0  0  0  # atno 4307 bound_to 3712
    2.0507  -21.0246    9.5339 LP  0  0  0  0  0  0  0  0  0  0  0  0  # atno 4314 bound_to 3832
    1.6018  -19.7269    8.6501 LP  0  0  0  0  0  0  0  0  0  0  0  0  # atno 4315 bound_to 3832
   -4.2019  -23.3309   10.4921 LP  0  0  0  0  0  0  0  0  0  0  0  0  # atno 4318 bound_to 3762
   -5.5009  -22.3434   10.4298 LP  0  0  0  0  0  0  0  0  0  0  0  0  # atno 4319 bound_to 3762
   -5.5093   -5.2348    8.5486 LP  0  0  0  0  0  0  0  0  0  0  0  0  # atno 4320 bound_to 2467
   -4.1358   -4.8055    7.7768 LP  0  0  0  0  0  0  0  0  0  0  0  0  # atno 4321 bound_to 2467

> <Gold.Score>
     Score     S(PLP)   S(hbond)     S(cho)   S(metal)  DE(clash)   DE(tors)     intcor
     39.58     -39.66       0.00       0.00       0.00       0.00       0.04       0.00

> <Gold.PLP.Fitness>
39.5801

> <Gold.PLP.PLP>
-39.6598

> <Gold.PLP.part.hbond>
0.0000

> <Gold.PLP.part.metal>
0.0000

> <Gold.PLP.part.buried>
-4.2440

> <Gold.PLP.part.nonpolar>
-35.9563

> <Gold.PLP.part.repulsive>
0.0036

> <Gold.PLP.ligand.clash>
0.0000

> <Gold.PLP.ligand.torsion>
0.0399

> <Gold.PLP.Chemscore.Hbond>
0.0000

> <Gold.PLP.Chemscore.CHOScore>
0.0000

> <Gold.PLP.Chemscore.Metal>
0.0000

> <Gold.PLP.Chemscore.Internal.Correction>
0.0001

