#       Name:                EN300-378347_i001
#       Creating user name   fsindt
#       Creation time:       Tue Feb 28 13:45:09 2023


#       File generated by GOLD software.
#

@<TRIPOS>MOLECULE
EN300-378347_i001|amine_1|mol2|4665|dock12
    24    24     1
SMALL
USER_CHARGES


@<TRIPOS>ATOM
      1 C1           0.2236 -10.4962  10.5081 C.3            1 <1>                0.0000
      2 C2          -0.4316 -11.8736  10.3873 C.3            1 <1>                0.0000
      3 C3          -1.9242 -11.7046  10.0967 C.3            1 <1>                0.0000
      4 C4           0.2154 -12.6408   9.2630 C.ar           1 <1>                0.0000
      5 C5           0.6720 -11.9722   8.1444 C.ar           1 <1>                0.0000
      6 C6           1.2686 -12.6793   7.1086 C.ar           1 <1>                0.0000
      7 N7           1.7321 -12.0026   5.9749 N.pl3          1 <1>                0.0000
      8 C8           1.4054 -14.0580   7.1988 C.ar           1 <1>                0.0000
      9 C9           0.9480 -14.7252   8.3186 C.ar           1 <1>                0.0000
     10 C10          0.3571 -14.0177   9.3547 C.ar           1 <1>                0.0000
     11 O11         -0.0925 -14.6753  10.4570 O.3            1 <1>                0.0000
     12 H12         -0.2444  -9.9414  11.3212 H              1 <1>                0.0000
     13 H13          1.2870 -10.6166  10.7151 H              1 <1>                0.0000
     14 H14          0.0950  -9.9495   9.5739 H              1 <1>                0.0000
     15 H15         -0.3029 -12.4203  11.3215 H              1 <1>                0.0000
     16 H16         -2.0528 -11.1579   9.1625 H              1 <1>                0.0000
     17 H17         -2.3910 -12.6859  10.0106 H              1 <1>                0.0000
     18 H18         -2.3921 -11.1498  10.9099 H              1 <1>                0.0000
     19 H19          0.5650 -10.8998   8.0749 H              1 <1>                0.0000
     20 H20          1.8688 -14.6088   6.3937 H              1 <1>                0.0000
     21 H21          1.0539 -15.7977   8.3888 H              1 <1>                0.0000
     22 H22          1.6368 -11.0393   5.9122 H              1 <1>                0.0000
     23 H23          2.1487 -12.4968   5.2516 H              1 <1>                0.0000
     24 H24         -0.5011 -15.5304  10.2653 H              1 <1>                0.0000
@<TRIPOS>BOND
    1    1    2 1     
    2    1   12 1     
    3    1   13 1     
    4    1   14 1     
    5    2    3 1     
    6    2    4 1     
    7    2   15 1     
    8    3   16 1     
    9    3   17 1     
   10    3   18 1     
   11    4    5 ar    
   12    4   10 ar    
   13    5    6 ar    
   14    5   19 1     
   15    6    7 1     
   16    6    8 ar    
   17    7   22 1     
   18    7   23 1     
   19    8    9 ar    
   20    8   20 1     
   21    9   10 ar    
   22    9   21 1     
   23   10   11 1     
   24   11   24 1     
@<TRIPOS>SUBSTRUCTURE
      1 ****           1
@<TRIPOS>SET
DONOR_HYDROGENS      STATIC     ATOMS    <user>   **** ""
3 22 23 24
ATOM$RED        STATIC     ATOMS    COLORGROUP SYSTEM
3 22 23 24
@<TRIPOS>COMMENT
> <Gold.Version>
2022.2.0

> <Gold.Id.Protein>
3pbl|protein|mol2

> <Gold.Protein.RotatedTorsions>
[ 1303 1298 1297 1294 ] final  -81.81 input  179.99 | X-H torsion
[ 2461 2456 2455 2452 ] final  -18.80 input   30.03 | X-H torsion
[ 2515 2510 2509 2506 ] final   59.14 input  -89.99 | X-H torsion
[ 3721 3712 3711 3710 ] final -115.38 input -179.91 | X-H torsion
[ 3841 3832 3831 3830 ] final  106.03 input -179.91 | X-H torsion
[ 3767 3762 3761 3758 ] final  -85.00 input  -89.99 | X-H torsion
[ 2472 2467 2466 2463 ] final  100.36 input  -89.97 | X-H torsion

> <Gold.Protein.ActiveResidues>
 VAL82   VAL86   LEU89   PHE106  VAL107  ASP110  VAL111  MET112  CYS114  THR115 
 CYS181  SER182  ILE183  PHE188  VAL189  ILE190  SER192  SER193  SER196  TRP342 
 PHE345  PHE346  HIS349  VAL350  TYR365  THR369  GLY372  TYR373 

> <Gold.Protein.RotatedAtoms>
    3.7247   -8.7056    3.8298 H   0  0  0  0  0  0  0  0  0  0  0  0  # atno 1303 bound_to 1298
    0.7644   -8.1193    7.0650 H   0  0  0  0  0  0  0  0  0  0  0  0  # atno 2461 bound_to 2456
   -5.2318   -4.9686    7.8925 H   0  0  0  0  0  0  0  0  0  0  0  0  # atno 2472 bound_to 2467
    2.1544   -7.4576    5.4364 H   0  0  0  0  0  0  0  0  0  0  0  0  # atno 2515 bound_to 2510
   -3.1922  -16.6921   14.4596 H   0  0  0  0  0  0  0  0  0  0  0  0  # atno 3721 bound_to 3712
   -5.2764  -21.9307   11.1490 H   0  0  0  0  0  0  0  0  0  0  0  0  # atno 3767 bound_to 3762
    2.9917  -20.8360    9.0942 H   0  0  0  0  0  0  0  0  0  0  0  0  # atno 3841 bound_to 3832
    4.9121   -9.1881    4.8416 LP  0  0  0  0  0  0  0  0  0  0  0  0  # atno 4297 bound_to 1298
    3.7255  -10.2279    4.4204 LP  0  0  0  0  0  0  0  0  0  0  0  0  # atno 4298 bound_to 1298
    0.8124   -9.2658    8.2271 LP  0  0  0  0  0  0  0  0  0  0  0  0  # atno 4299 bound_to 2456
    2.1608   -8.4229    7.8557 LP  0  0  0  0  0  0  0  0  0  0  0  0  # atno 4300 bound_to 2456
    2.8247   -8.5137    4.3871 LP  0  0  0  0  0  0  0  0  0  0  0  0  # atno 4301 bound_to 2510
    2.3177   -9.0282    5.8516 LP  0  0  0  0  0  0  0  0  0  0  0  0  # atno 4302 bound_to 2510
   -3.2280  -17.2876   12.9690 LP  0  0  0  0  0  0  0  0  0  0  0  0  # atno 4306 bound_to 3712
   -2.6143  -18.1674   14.2002 LP  0  0  0  0  0  0  0  0  0  0  0  0  # atno 4307 bound_to 3712
    1.4622  -20.4363    9.3717 LP  0  0  0  0  0  0  0  0  0  0  0  0  # atno 4314 bound_to 3832
    2.3113  -19.7002    8.1868 LP  0  0  0  0  0  0  0  0  0  0  0  0  # atno 4315 bound_to 3832
   -3.9346  -22.8395   11.3499 LP  0  0  0  0  0  0  0  0  0  0  0  0  # atno 4318 bound_to 3762
   -4.9165  -23.1046   10.0723 LP  0  0  0  0  0  0  0  0  0  0  0  0  # atno 4319 bound_to 3762
   -3.6652   -4.9615    8.3533 LP  0  0  0  0  0  0  0  0  0  0  0  0  # atno 4320 bound_to 2467
   -4.8200   -5.4634    9.3932 LP  0  0  0  0  0  0  0  0  0  0  0  0  # atno 4321 bound_to 2467

> <Gold.Score>
     Score     S(PLP)   S(hbond)     S(cho)   S(metal)  DE(clash)   DE(tors)     intcor
     35.54     -36.99       0.00       0.00       0.00       0.00       0.72       0.00

> <Gold.PLP.Fitness>
35.5447

> <Gold.PLP.PLP>
-36.9877

> <Gold.PLP.part.hbond>
-0.0295

> <Gold.PLP.part.metal>
0.0000

> <Gold.PLP.part.buried>
-3.2015

> <Gold.PLP.part.nonpolar>
-33.9522

> <Gold.PLP.part.repulsive>
0.0617

> <Gold.PLP.ligand.clash>
0.0000

> <Gold.PLP.ligand.torsion>
0.7216

> <Gold.PLP.Chemscore.Hbond>
0.0000

> <Gold.PLP.Chemscore.CHOScore>
0.0000

> <Gold.PLP.Chemscore.Metal>
0.0000

> <Gold.PLP.Chemscore.Internal.Correction>
0.0001

