#       Name:                EN300-378347_i001
#       Creating user name   fsindt
#       Creation time:       Tue Feb 28 13:45:13 2023


#       File generated by GOLD software.
#

@<TRIPOS>MOLECULE
EN300-378347_i001|amine_1|mol2|4665|dock19
    24    24     1
SMALL
USER_CHARGES


@<TRIPOS>ATOM
      1 C1           1.7923 -15.5663  12.2316 C.3            1 <1>                0.0000
      2 C2           0.4332 -15.6485  11.5336 C.3            1 <1>                0.0000
      3 C3          -0.6604 -15.8973  12.5742 C.3            1 <1>                0.0000
      4 C4           0.1581 -14.3522  10.8157 C.ar           1 <1>                0.0000
      5 C5          -0.7021 -13.4252  11.3704 C.ar           1 <1>                0.0000
      6 C6          -0.9552 -12.2306  10.7089 C.ar           1 <1>                0.0000
      7 N7          -1.8263 -11.2904  11.2704 N.pl3          1 <1>                0.0000
      8 C8          -0.3432 -11.9695   9.4903 C.ar           1 <1>                0.0000
      9 C9           0.5170 -12.8979   8.9370 C.ar           1 <1>                0.0000
     10 C10          0.7733 -14.0884   9.6008 C.ar           1 <1>                0.0000
     11 O11          1.6206 -15.0018   9.0554 O.3            1 <1>                0.0000
     12 H12          1.9913 -16.5038  12.7508 H              1 <1>                0.0000
     13 H13          2.5714 -15.3890  11.4902 H              1 <1>                0.0000
     14 H14          1.7823 -14.7476  12.9511 H              1 <1>                0.0000
     15 H15          0.4433 -16.4672  10.8141 H              1 <1>                0.0000
     16 H16         -0.6703 -15.0785  13.2937 H              1 <1>                0.0000
     17 H17         -1.6286 -15.9558  12.0769 H              1 <1>                0.0000
     18 H18         -0.4614 -16.8348  13.0933 H              1 <1>                0.0000
     19 H19         -1.1780 -13.6293  12.3182 H              1 <1>                0.0000
     20 H20         -0.5397 -11.0409   8.9751 H              1 <1>                0.0000
     21 H21          0.9929 -12.6952   7.9890 H              1 <1>                0.0000
     22 H22         -2.2536 -11.4729  12.1219 H              1 <1>                0.0000
     23 H23         -2.0029 -10.4561  10.8082 H              1 <1>                0.0000
     24 H24          1.7658 -15.7821   9.6075 H              1 <1>                0.0000
@<TRIPOS>BOND
    1    1    2 1     
    2    1   12 1     
    3    1   13 1     
    4    1   14 1     
    5    2    3 1     
    6    2    4 1     
    7    2   15 1     
    8    3   16 1     
    9    3   17 1     
   10    3   18 1     
   11    4    5 ar    
   12    4   10 ar    
   13    5    6 ar    
   14    5   19 1     
   15    6    7 1     
   16    6    8 ar    
   17    7   22 1     
   18    7   23 1     
   19    8    9 ar    
   20    8   20 1     
   21    9   10 ar    
   22    9   21 1     
   23   10   11 1     
   24   11   24 1     
@<TRIPOS>SUBSTRUCTURE
      1 ****           1
@<TRIPOS>SET
DONOR_HYDROGENS      STATIC     ATOMS    <user>   **** ""
3 22 23 24
ATOM$RED        STATIC     ATOMS    COLORGROUP SYSTEM
3 22 23 24
@<TRIPOS>COMMENT
> <Gold.Version>
2022.2.0

> <Gold.Id.Protein>
3pbl|protein|mol2

> <Gold.Protein.RotatedTorsions>
[ 1303 1298 1297 1294 ] final  130.76 input  179.99 | X-H torsion
[ 2461 2456 2455 2452 ] final  168.37 input   30.03 | X-H torsion
[ 2515 2510 2509 2506 ] final -168.34 input  -89.99 | X-H torsion
[ 3721 3712 3711 3710 ] final  137.37 input -179.91 | X-H torsion
[ 3841 3832 3831 3830 ] final -133.29 input -179.91 | X-H torsion
[ 3767 3762 3761 3758 ] final   70.16 input  -89.99 | X-H torsion
[ 2472 2467 2466 2463 ] final -118.51 input  -89.97 | X-H torsion

> <Gold.Protein.ActiveResidues>
 VAL82   VAL86   LEU89   PHE106  VAL107  ASP110  VAL111  MET112  CYS114  THR115 
 CYS181  SER182  ILE183  PHE188  VAL189  ILE190  SER192  SER193  SER196  TRP342 
 PHE345  PHE346  HIS349  VAL350  TYR365  THR369  GLY372  TYR373 

> <Gold.Protein.RotatedAtoms>
    4.8228   -9.6136    4.9453 H   0  0  0  0  0  0  0  0  0  0  0  0  # atno 1303 bound_to 1298
    1.6265   -9.1431    8.3888 H   0  0  0  0  0  0  0  0  0  0  0  0  # atno 2461 bound_to 2456
   -4.4771   -5.4404    9.4319 H   0  0  0  0  0  0  0  0  0  0  0  0  # atno 2472 bound_to 2467
    2.4046   -9.1435    5.7052 H   0  0  0  0  0  0  0  0  0  0  0  0  # atno 2515 bound_to 2510
   -3.1298  -17.0114   13.1032 H   0  0  0  0  0  0  0  0  0  0  0  0  # atno 3721 bound_to 3712
   -4.4320  -23.3188   10.2816 H   0  0  0  0  0  0  0  0  0  0  0  0  # atno 3767 bound_to 3762
    2.4055  -19.6432    8.3891 H   0  0  0  0  0  0  0  0  0  0  0  0  # atno 3841 bound_to 3832
    3.4541  -10.0035    4.1447 LP  0  0  0  0  0  0  0  0  0  0  0  0  # atno 4297 bound_to 1298
    4.0850   -8.5041    4.0014 LP  0  0  0  0  0  0  0  0  0  0  0  0  # atno 4298 bound_to 1298
    1.7766   -7.9667    7.2659 LP  0  0  0  0  0  0  0  0  0  0  0  0  # atno 4299 bound_to 2456
    0.3347   -8.6986    7.4937 LP  0  0  0  0  0  0  0  0  0  0  0  0  # atno 4300 bound_to 2456
    2.0973   -7.5425    5.6148 LP  0  0  0  0  0  0  0  0  0  0  0  0  # atno 4301 bound_to 2510
    2.7948   -8.3127    4.3550 LP  0  0  0  0  0  0  0  0  0  0  0  0  # atno 4302 bound_to 2510
   -2.6070  -18.2048   14.0415 LP  0  0  0  0  0  0  0  0  0  0  0  0  # atno 4306 bound_to 3712
   -3.3072  -16.8816   14.6937 LP  0  0  0  0  0  0  0  0  0  0  0  0  # atno 4307 bound_to 3712
    2.9647  -21.0298    8.9727 LP  0  0  0  0  0  0  0  0  0  0  0  0  # atno 4314 bound_to 3832
    1.4859  -20.4846    9.4002 LP  0  0  0  0  0  0  0  0  0  0  0  0  # atno 4315 bound_to 3832
   -5.4996  -22.1461   10.6712 LP  0  0  0  0  0  0  0  0  0  0  0  0  # atno 4318 bound_to 3762
   -4.1957  -22.4104   11.6180 LP  0  0  0  0  0  0  0  0  0  0  0  0  # atno 4319 bound_to 3762
   -5.4278   -5.0834    8.1532 LP  0  0  0  0  0  0  0  0  0  0  0  0  # atno 4320 bound_to 2467
   -3.8119   -4.8699    8.0541 LP  0  0  0  0  0  0  0  0  0  0  0  0  # atno 4321 bound_to 2467

> <Gold.Score>
     Score     S(PLP)   S(hbond)     S(cho)   S(metal)  DE(clash)   DE(tors)     intcor
     34.01     -32.55       0.82       0.00       0.00       0.00       0.49       0.00

> <Gold.PLP.Fitness>
34.0120

> <Gold.PLP.PLP>
-32.5536

> <Gold.PLP.part.hbond>
-1.0000

> <Gold.PLP.part.metal>
0.0000

> <Gold.PLP.part.buried>
-3.8760

> <Gold.PLP.part.nonpolar>
-28.5877

> <Gold.PLP.part.repulsive>
0.0691

> <Gold.PLP.ligand.clash>
0.0035

> <Gold.PLP.ligand.torsion>
0.4931

> <Gold.PLP.Chemscore.Hbond>
0.8160

> <Gold.PLP.Chemscore.CHOScore>
0.0000

> <Gold.PLP.Chemscore.Metal>
0.0000

> <Gold.Chemscore.Hbonds>
donor molecule, donor type, donor heavy atom, donor atom, acceptor molecule, acceptor atom, score
      L1  H    11    24       P1  1227  0.82

> <Gold.PLP.Chemscore.Internal.Correction>
0.0001

