#       Name:                EN300-378347_i001
#       Creating user name   fsindt
#       Creation time:       Tue Feb 28 13:45:05 2023


#       File generated by GOLD software.
#

@<TRIPOS>MOLECULE
EN300-378347_i001|amine_1|mol2|4665|dock4
    24    24     1
SMALL
USER_CHARGES


@<TRIPOS>ATOM
      1 C1          -3.0453 -10.7747   9.6726 C.3            1 <1>                0.0000
      2 C2          -1.5635 -10.3938   9.6555 C.3            1 <1>                0.0000
      3 C3          -1.2112  -9.6573  10.9494 C.3            1 <1>                0.0000
      4 C4          -0.7255 -11.6414   9.5433 C.ar           1 <1>                0.0000
      5 C5          -0.8058 -12.6167  10.5176 C.ar           1 <1>                0.0000
      6 C6          -0.0338 -13.7664  10.4139 C.ar           1 <1>                0.0000
      7 N7          -0.1149 -14.7555  11.4004 N.pl3          1 <1>                0.0000
      8 C8           0.8183 -13.9342   9.3305 C.ar           1 <1>                0.0000
      9 C9           0.8973 -12.9575   8.3569 C.ar           1 <1>                0.0000
     10 C10          0.1221 -11.8121   8.4585 C.ar           1 <1>                0.0000
     11 O11          0.2003 -10.8512   7.4993 O.3            1 <1>                0.0000
     12 H12         -3.6514  -9.8724   9.7538 H              1 <1>                0.0000
     13 H13         -3.2963 -11.2995   8.7508 H              1 <1>                0.0000
     14 H14         -3.2438 -11.4236  10.5257 H              1 <1>                0.0000
     15 H15         -1.3651  -9.7449   8.8024 H              1 <1>                0.0000
     16 H16         -1.4097 -10.3063  11.8024 H              1 <1>                0.0000
     17 H17         -0.1555  -9.3860  10.9371 H              1 <1>                0.0000
     18 H18         -1.8173  -8.7550  11.0304 H              1 <1>                0.0000
     19 H19         -1.4686 -12.4852  11.3601 H              1 <1>                0.0000
     20 H20          1.4193 -14.8277   9.2492 H              1 <1>                0.0000
     21 H21          1.5603 -13.0876   7.5143 H              1 <1>                0.0000
     22 H22         -0.7104 -14.6383  12.1569 H              1 <1>                0.0000
     23 H23          0.4245 -15.5585  11.3276 H              1 <1>                0.0000
     24 H24          0.8205 -10.1387   7.7060 H              1 <1>                0.0000
@<TRIPOS>BOND
    1    1    2 1     
    2    1   12 1     
    3    1   13 1     
    4    1   14 1     
    5    2    3 1     
    6    2    4 1     
    7    2   15 1     
    8    3   16 1     
    9    3   17 1     
   10    3   18 1     
   11    4    5 ar    
   12    4   10 ar    
   13    5    6 ar    
   14    5   19 1     
   15    6    7 1     
   16    6    8 ar    
   17    7   22 1     
   18    7   23 1     
   19    8    9 ar    
   20    8   20 1     
   21    9   10 ar    
   22    9   21 1     
   23   10   11 1     
   24   11   24 1     
@<TRIPOS>SUBSTRUCTURE
      1 ****           1
@<TRIPOS>SET
DONOR_HYDROGENS      STATIC     ATOMS    <user>   **** ""
3 22 23 24
ATOM$RED        STATIC     ATOMS    COLORGROUP SYSTEM
3 22 23 24
@<TRIPOS>COMMENT
> <Gold.Version>
2022.2.0

> <Gold.Id.Protein>
3pbl|protein|mol2

> <Gold.Protein.RotatedTorsions>
[ 1303 1298 1297 1294 ] final   -9.08 input  179.99 | X-H torsion
[ 2461 2456 2455 2452 ] final   78.20 input   30.03 | X-H torsion
[ 2515 2510 2509 2506 ] final -119.68 input  -89.99 | X-H torsion
[ 3721 3712 3711 3710 ] final -107.07 input -179.91 | X-H torsion
[ 3841 3832 3831 3830 ] final  124.31 input -179.91 | X-H torsion
[ 3767 3762 3761 3758 ] final   24.59 input  -89.99 | X-H torsion
[ 2472 2467 2466 2463 ] final  101.02 input  -89.97 | X-H torsion

> <Gold.Protein.ActiveResidues>
 VAL82   VAL86   LEU89   PHE106  VAL107  ASP110  VAL111  MET112  CYS114  THR115 
 CYS181  SER182  ILE183  PHE188  VAL189  ILE190  SER192  SER193  SER196  TRP342 
 PHE345  PHE346  HIS349  VAL350  TYR365  THR369  GLY372  TYR373 

> <Gold.Protein.RotatedAtoms>
    3.3489   -9.7484    3.9734 H   0  0  0  0  0  0  0  0  0  0  0  0  # atno 1303 bound_to 1298
    2.0775   -8.1784    7.5825 H   0  0  0  0  0  0  0  0  0  0  0  0  # atno 2461 bound_to 2456
   -5.2394   -4.9719    7.8994 H   0  0  0  0  0  0  0  0  0  0  0  0  # atno 2472 bound_to 2467
    2.7162   -9.2021    4.9965 H   0  0  0  0  0  0  0  0  0  0  0  0  # atno 2515 bound_to 2510
   -3.1421  -16.7658   14.5481 H   0  0  0  0  0  0  0  0  0  0  0  0  # atno 3721 bound_to 3712
   -5.0528  -23.0016   10.0637 H   0  0  0  0  0  0  0  0  0  0  0  0  # atno 3767 bound_to 3762
    3.1004  -20.6849    8.8916 H   0  0  0  0  0  0  0  0  0  0  0  0  # atno 3841 bound_to 3832
    4.3555   -8.4794    4.1798 LP  0  0  0  0  0  0  0  0  0  0  0  0  # atno 4297 bound_to 1298
    4.6580   -9.8933    4.9386 LP  0  0  0  0  0  0  0  0  0  0  0  0  # atno 4298 bound_to 1298
    0.4986   -8.3480    7.2007 LP  0  0  0  0  0  0  0  0  0  0  0  0  # atno 4299 bound_to 2456
    1.1619   -9.2816    8.3649 LP  0  0  0  0  0  0  0  0  0  0  0  0  # atno 4300 bound_to 2456
    2.0417   -8.1711    6.0678 LP  0  0  0  0  0  0  0  0  0  0  0  0  # atno 4301 bound_to 2510
    2.5387   -7.6255    4.6111 LP  0  0  0  0  0  0  0  0  0  0  0  0  # atno 4302 bound_to 2510
   -3.2928  -17.1693   13.0014 LP  0  0  0  0  0  0  0  0  0  0  0  0  # atno 4306 bound_to 3712
   -2.6072  -18.2007   14.0657 LP  0  0  0  0  0  0  0  0  0  0  0  0  # atno 4307 bound_to 3712
    1.6116  -20.6730    9.4911 LP  0  0  0  0  0  0  0  0  0  0  0  0  # atno 4314 bound_to 3832
    2.0364  -19.6381    8.3015 LP  0  0  0  0  0  0  0  0  0  0  0  0  # atno 4315 bound_to 3832
   -5.1650  -21.9151   11.2777 LP  0  0  0  0  0  0  0  0  0  0  0  0  # atno 4318 bound_to 3762
   -3.9098  -22.9585   11.2293 LP  0  0  0  0  0  0  0  0  0  0  0  0  # atno 4319 bound_to 3762
   -3.6680   -4.9583    8.3434 LP  0  0  0  0  0  0  0  0  0  0  0  0  # atno 4320 bound_to 2467
   -4.8096   -5.4633    9.3962 LP  0  0  0  0  0  0  0  0  0  0  0  0  # atno 4321 bound_to 2467

> <Gold.Score>
     Score     S(PLP)   S(hbond)     S(cho)   S(metal)  DE(clash)   DE(tors)     intcor
     41.98     -38.98       1.00       0.00       0.00       0.00       0.00       0.00

> <Gold.PLP.Fitness>
41.9788

> <Gold.PLP.PLP>
-38.9790

> <Gold.PLP.part.hbond>
-1.0000

> <Gold.PLP.part.metal>
0.0000

> <Gold.PLP.part.buried>
-3.5968

> <Gold.PLP.part.nonpolar>
-35.3471

> <Gold.PLP.part.repulsive>
0.0231

> <Gold.PLP.ligand.clash>
0.0000

> <Gold.PLP.ligand.torsion>
0.0002

> <Gold.PLP.Chemscore.Hbond>
1.0000

> <Gold.PLP.Chemscore.CHOScore>
0.0000

> <Gold.PLP.Chemscore.Metal>
0.0000

> <Gold.Chemscore.Hbonds>
donor molecule, donor type, donor heavy atom, donor atom, acceptor molecule, acceptor atom, score
      L1  H    11    24       P1  2456  1.00

> <Gold.PLP.Chemscore.Internal.Correction>
0.0001

