#       Name:                EN300-378347_i001
#       Creating user name   fsindt
#       Creation time:       Tue Feb 28 13:45:07 2023


#       File generated by GOLD software.
#

@<TRIPOS>MOLECULE
EN300-378347_i001|amine_1|mol2|4665|dock7
    24    24     1
SMALL
USER_CHARGES


@<TRIPOS>ATOM
      1 C1          -0.4237 -14.1157   7.4303 C.3            1 <1>                0.0000
      2 C2           0.4381 -13.0338   8.0844 C.3            1 <1>                0.0000
      3 C3           0.8578 -12.0088   7.0289 C.3            1 <1>                0.0000
      4 C4          -0.3546 -12.3457   9.1658 C.ar           1 <1>                0.0000
      5 C5          -0.9056 -11.1013   8.9318 C.ar           1 <1>                0.0000
      6 C6          -1.6363 -10.4675   9.9283 C.ar           1 <1>                0.0000
      7 N7          -2.1955  -9.2067   9.6921 N.pl3          1 <1>                0.0000
      8 C8          -1.8123 -11.0858  11.1590 C.ar           1 <1>                0.0000
      9 C9          -1.2604 -12.3306  11.3912 C.ar           1 <1>                0.0000
     10 C10         -0.5352 -12.9651  10.3938 C.ar           1 <1>                0.0000
     11 O11          0.0075 -14.1909  10.6231 O.3            1 <1>                0.0000
     12 H12          0.1496 -14.6134   6.6482 H              1 <1>                0.0000
     13 H13         -0.7228 -14.8460   8.1823 H              1 <1>                0.0000
     14 H14         -1.3121 -13.6584   6.9945 H              1 <1>                0.0000
     15 H15          1.3264 -13.4912   8.5202 H              1 <1>                0.0000
     16 H16         -0.0305 -11.5515   6.5931 H              1 <1>                0.0000
     17 H17          1.4718 -11.2381   7.4949 H              1 <1>                0.0000
     18 H18          1.4312 -12.5065   6.2469 H              1 <1>                0.0000
     19 H19         -0.7680 -10.6210   7.9744 H              1 <1>                0.0000
     20 H20         -2.3801 -10.5935  11.9346 H              1 <1>                0.0000
     21 H21         -1.3968 -12.8116  12.3486 H              1 <1>                0.0000
     22 H22         -2.0728  -8.7751   8.8322 H              1 <1>                0.0000
     23 H23         -2.7059  -8.7643  10.3883 H              1 <1>                0.0000
     24 H24         -0.2489 -14.5824  11.4693 H              1 <1>                0.0000
@<TRIPOS>BOND
    1    1    2 1     
    2    1   12 1     
    3    1   13 1     
    4    1   14 1     
    5    2    3 1     
    6    2    4 1     
    7    2   15 1     
    8    3   16 1     
    9    3   17 1     
   10    3   18 1     
   11    4    5 ar    
   12    4   10 ar    
   13    5    6 ar    
   14    5   19 1     
   15    6    7 1     
   16    6    8 ar    
   17    7   22 1     
   18    7   23 1     
   19    8    9 ar    
   20    8   20 1     
   21    9   10 ar    
   22    9   21 1     
   23   10   11 1     
   24   11   24 1     
@<TRIPOS>SUBSTRUCTURE
      1 ****           1
@<TRIPOS>SET
DONOR_HYDROGENS      STATIC     ATOMS    <user>   **** ""
3 22 23 24
ATOM$RED        STATIC     ATOMS    COLORGROUP SYSTEM
3 22 23 24
@<TRIPOS>COMMENT
> <Gold.Version>
2022.2.0

> <Gold.Id.Protein>
3pbl|protein|mol2

> <Gold.Protein.RotatedTorsions>
[ 1303 1298 1297 1294 ] final  150.71 input  179.99 | X-H torsion
[ 2461 2456 2455 2452 ] final -166.59 input   30.03 | X-H torsion
[ 2515 2510 2509 2506 ] final  -71.74 input  -89.99 | X-H torsion
[ 3721 3712 3711 3710 ] final  176.47 input -179.91 | X-H torsion
[ 3841 3832 3831 3830 ] final    3.51 input -179.91 | X-H torsion
[ 3767 3762 3761 3758 ] final    4.07 input  -89.99 | X-H torsion
[ 2472 2467 2466 2463 ] final  179.92 input  -89.97 | X-H torsion

> <Gold.Protein.ActiveResidues>
 VAL82   VAL86   LEU89   PHE106  VAL107  ASP110  VAL111  MET112  CYS114  THR115 
 CYS181  SER182  ILE183  PHE188  VAL189  ILE190  SER192  SER193  SER196  TRP342 
 PHE345  PHE346  HIS349  VAL350  TYR365  THR369  GLY372  TYR373 

> <Gold.Protein.RotatedAtoms>
    4.9049   -9.3040    4.8822 H   0  0  0  0  0  0  0  0  0  0  0  0  # atno 1303 bound_to 1298
    1.2383   -9.2712    8.3812 H   0  0  0  0  0  0  0  0  0  0  0  0  # atno 2461 bound_to 2456
   -5.3474   -5.3870    9.0182 H   0  0  0  0  0  0  0  0  0  0  0  0  # atno 2472 bound_to 2467
    2.8354   -8.6815    4.4477 H   0  0  0  0  0  0  0  0  0  0  0  0  # atno 2515 bound_to 2510
   -3.3136  -16.6293   13.4987 H   0  0  0  0  0  0  0  0  0  0  0  0  # atno 3721 bound_to 3712
   -5.2849  -22.7665   10.1238 H   0  0  0  0  0  0  0  0  0  0  0  0  # atno 3767 bound_to 3762
    1.7683  -20.5264    9.5745 H   0  0  0  0  0  0  0  0  0  0  0  0  # atno 3841 bound_to 3832
    3.6394  -10.1843    4.3437 LP  0  0  0  0  0  0  0  0  0  0  0  0  # atno 4297 bound_to 1298
    3.8175   -8.6331    3.8655 LP  0  0  0  0  0  0  0  0  0  0  0  0  # atno 4298 bound_to 1298
    2.0424   -8.1351    7.5269 LP  0  0  0  0  0  0  0  0  0  0  0  0  # atno 4299 bound_to 2456
    0.4571   -8.4021    7.2403 LP  0  0  0  0  0  0  0  0  0  0  0  0  # atno 4300 bound_to 2456
    2.2467   -8.9005    5.9548 LP  0  0  0  0  0  0  0  0  0  0  0  0  # atno 4301 bound_to 2510
    2.2144   -7.4170    5.2731 LP  0  0  0  0  0  0  0  0  0  0  0  0  # atno 4302 bound_to 2510
   -2.7134  -18.1162   13.4157 LP  0  0  0  0  0  0  0  0  0  0  0  0  # atno 4306 bound_to 3712
   -2.9886  -17.4113   14.8628 LP  0  0  0  0  0  0  0  0  0  0  0  0  # atno 4307 bound_to 3712
    2.0920  -19.6447    8.2730 LP  0  0  0  0  0  0  0  0  0  0  0  0  # atno 4314 bound_to 3832
    3.0948  -20.8495    8.7307 LP  0  0  0  0  0  0  0  0  0  0  0  0  # atno 4315 bound_to 3832
   -4.9048  -21.9513   11.4868 LP  0  0  0  0  0  0  0  0  0  0  0  0  # atno 4318 bound_to 3762
   -3.9379  -23.1573   10.9602 LP  0  0  0  0  0  0  0  0  0  0  0  0  # atno 4319 bound_to 3762
   -4.6420   -4.8190    7.6595 LP  0  0  0  0  0  0  0  0  0  0  0  0  # atno 4320 bound_to 2467
   -3.7277   -5.1876    8.9614 LP  0  0  0  0  0  0  0  0  0  0  0  0  # atno 4321 bound_to 2467

> <Gold.Score>
     Score     S(PLP)   S(hbond)     S(cho)   S(metal)  DE(clash)   DE(tors)     intcor
     40.77     -40.61       0.39       0.00       0.00       0.06       0.48       0.00

> <Gold.PLP.Fitness>
40.7671

> <Gold.PLP.PLP>
-40.6059

> <Gold.PLP.part.hbond>
-1.0000

> <Gold.PLP.part.metal>
0.0000

> <Gold.PLP.part.buried>
-3.9060

> <Gold.PLP.part.nonpolar>
-36.6505

> <Gold.PLP.part.repulsive>
0.1135

> <Gold.PLP.ligand.clash>
0.0567

> <Gold.PLP.ligand.torsion>
0.4781

> <Gold.PLP.Chemscore.Hbond>
0.3913

> <Gold.PLP.Chemscore.CHOScore>
0.0000

> <Gold.PLP.Chemscore.Metal>
0.0000

> <Gold.Chemscore.Hbonds>
donor molecule, donor type, donor heavy atom, donor atom, acceptor molecule, acceptor atom, score
      L1  H     7    23       P1  2398  0.39

> <Gold.PLP.Chemscore.Internal.Correction>
0.0001

