#       Name:                EN300-378347_i001
#       Creating user name   fsindt
#       Creation time:       Tue Feb 28 13:45:11 2023


#       File generated by GOLD software.
#

@<TRIPOS>MOLECULE
EN300-378347_i001|amine_1|mol2|4665|dock16
    24    24     1
SMALL
USER_CHARGES


@<TRIPOS>ATOM
      1 C1           1.0225 -13.6416   9.5018 C.3            1 <1>                0.0000
      2 C2           0.3095 -12.7521   8.4812 C.3            1 <1>                0.0000
      3 C3          -0.4866 -13.6267   7.5106 C.3            1 <1>                0.0000
      4 C4          -0.6285 -11.8162   9.1992 C.ar           1 <1>                0.0000
      5 C5          -1.9908 -12.0383   9.1577 C.ar           1 <1>                0.0000
      6 C6          -2.8550 -11.1760   9.8197 C.ar           1 <1>                0.0000
      7 N7          -4.2356 -11.4005   9.7786 N.pl3          1 <1>                0.0000
      8 C8          -2.3484 -10.0912  10.5227 C.ar           1 <1>                0.0000
      9 C9          -0.9854  -9.8706  10.5632 C.ar           1 <1>                0.0000
     10 C10         -0.1228 -10.7352   9.9062 C.ar           1 <1>                0.0000
     11 O11          1.2191 -10.5174   9.9468 O.3            1 <1>                0.0000
     12 H12          1.7009 -14.3185   8.9825 H              1 <1>                0.0000
     13 H13          1.5896 -13.0185  10.1934 H              1 <1>                0.0000
     14 H14          0.2848 -14.2214  10.0566 H              1 <1>                0.0000
     15 H15          1.0472 -12.1723   7.9265 H              1 <1>                0.0000
     16 H16         -1.2243 -14.2066   8.0654 H              1 <1>                0.0000
     17 H17         -0.9946 -12.9930   6.7836 H              1 <1>                0.0000
     18 H18          0.1918 -14.3036   6.9913 H              1 <1>                0.0000
     19 H19         -2.3841 -12.8822   8.6103 H              1 <1>                0.0000
     20 H20         -3.0197  -9.4198  11.0375 H              1 <1>                0.0000
     21 H21         -0.5911  -9.0266  11.1097 H              1 <1>                0.0000
     22 H22         -4.5893 -12.1586   9.2877 H              1 <1>                0.0000
     23 H23         -4.8390 -10.7980  10.2411 H              1 <1>                0.0000
     24 H24          1.5572 -10.0054   9.1996 H              1 <1>                0.0000
@<TRIPOS>BOND
    1    1    2 1     
    2    1   12 1     
    3    1   13 1     
    4    1   14 1     
    5    2    3 1     
    6    2    4 1     
    7    2   15 1     
    8    3   16 1     
    9    3   17 1     
   10    3   18 1     
   11    4    5 ar    
   12    4   10 ar    
   13    5    6 ar    
   14    5   19 1     
   15    6    7 1     
   16    6    8 ar    
   17    7   22 1     
   18    7   23 1     
   19    8    9 ar    
   20    8   20 1     
   21    9   10 ar    
   22    9   21 1     
   23   10   11 1     
   24   11   24 1     
@<TRIPOS>SUBSTRUCTURE
      1 ****           1
@<TRIPOS>SET
DONOR_HYDROGENS      STATIC     ATOMS    <user>   **** ""
3 22 23 24
ATOM$RED        STATIC     ATOMS    COLORGROUP SYSTEM
3 22 23 24
@<TRIPOS>COMMENT
> <Gold.Version>
2022.2.0

> <Gold.Id.Protein>
3pbl|protein|mol2

> <Gold.Protein.RotatedTorsions>
[ 1303 1298 1297 1294 ] final -105.53 input  179.99 | X-H torsion
[ 2461 2456 2455 2452 ] final   45.19 input   30.03 | X-H torsion
[ 2515 2510 2509 2506 ] final  -61.11 input  -89.99 | X-H torsion
[ 3721 3712 3711 3710 ] final  -62.65 input -179.91 | X-H torsion
[ 3841 3832 3831 3830 ] final  141.31 input -179.91 | X-H torsion
[ 3767 3762 3761 3758 ] final   -9.15 input  -89.99 | X-H torsion
[ 2472 2467 2466 2463 ] final  166.68 input  -89.97 | X-H torsion

> <Gold.Protein.ActiveResidues>
 VAL82   VAL86   LEU89   PHE106  VAL107  ASP110  VAL111  MET112  CYS114  THR115 
 CYS181  SER182  ILE183  PHE188  VAL189  ILE190  SER192  SER193  SER196  TRP342 
 PHE345  PHE346  HIS349  VAL350  TYR365  THR369  GLY372  TYR373 

> <Gold.Protein.RotatedAtoms>
    4.0338   -8.5205    3.9728 H   0  0  0  0  0  0  0  0  0  0  0  0  # atno 1303 bound_to 1298
    1.7346   -7.9532    7.2378 H   0  0  0  0  0  0  0  0  0  0  0  0  # atno 2461 bound_to 2456
   -5.4477   -5.3315    8.8335 H   0  0  0  0  0  0  0  0  0  0  0  0  # atno 2472 bound_to 2467
    2.8251   -8.5174    4.3885 H   0  0  0  0  0  0  0  0  0  0  0  0  # atno 2515 bound_to 2510
   -2.8196  -17.2963   14.7564 H   0  0  0  0  0  0  0  0  0  0  0  0  # atno 3721 bound_to 3712
   -5.3974  -22.6034   10.2128 H   0  0  0  0  0  0  0  0  0  0  0  0  # atno 3767 bound_to 3762
    3.1333  -20.5063    8.7113 H   0  0  0  0  0  0  0  0  0  0  0  0  # atno 3841 bound_to 3832
    4.8453   -9.5575    4.9385 LP  0  0  0  0  0  0  0  0  0  0  0  0  # atno 4297 bound_to 1298
    3.4831  -10.0436    4.1805 LP  0  0  0  0  0  0  0  0  0  0  0  0  # atno 4298 bound_to 1298
    0.3313   -8.7361    7.5300 LP  0  0  0  0  0  0  0  0  0  0  0  0  # atno 4299 bound_to 2456
    1.6720   -9.1187    8.3802 LP  0  0  0  0  0  0  0  0  0  0  0  0  # atno 4300 bound_to 2456
    2.3161   -9.0255    5.8543 LP  0  0  0  0  0  0  0  0  0  0  0  0  # atno 4301 bound_to 2510
    2.1554   -7.4561    5.4329 LP  0  0  0  0  0  0  0  0  0  0  0  0  # atno 4302 bound_to 2510
   -3.5379  -16.6697   13.4644 LP  0  0  0  0  0  0  0  0  0  0  0  0  # atno 4306 bound_to 3712
   -2.7345  -18.0877   13.3621 LP  0  0  0  0  0  0  0  0  0  0  0  0  # atno 4307 bound_to 3712
    1.8095  -20.8684    9.5435 LP  0  0  0  0  0  0  0  0  0  0  0  0  # atno 4314 bound_to 3832
    1.8004  -19.6490    8.4573 LP  0  0  0  0  0  0  0  0  0  0  0  0  # atno 4315 bound_to 3832
   -4.7216  -22.0207   11.5805 LP  0  0  0  0  0  0  0  0  0  0  0  0  # atno 4318 bound_to 3762
   -4.0086  -23.2509   10.7775 LP  0  0  0  0  0  0  0  0  0  0  0  0  # atno 4319 bound_to 3762
   -4.4259   -4.8010    7.6756 LP  0  0  0  0  0  0  0  0  0  0  0  0  # atno 4320 bound_to 2467
   -3.8435   -5.2611    9.1301 LP  0  0  0  0  0  0  0  0  0  0  0  0  # atno 4321 bound_to 2467

> <Gold.Score>
     Score     S(PLP)   S(hbond)     S(cho)   S(metal)  DE(clash)   DE(tors)     intcor
     38.72     -37.19       0.88       0.00       0.00       0.43       0.35       0.00

> <Gold.PLP.Fitness>
38.7177

> <Gold.PLP.PLP>
-37.1947

> <Gold.PLP.part.hbond>
-1.0000

> <Gold.PLP.part.metal>
0.0000

> <Gold.PLP.part.buried>
-3.4407

> <Gold.PLP.part.nonpolar>
-33.9095

> <Gold.PLP.part.repulsive>
0.0478

> <Gold.PLP.ligand.clash>
0.4251

> <Gold.PLP.ligand.torsion>
0.3459

> <Gold.PLP.Chemscore.Hbond>
0.8800

> <Gold.PLP.Chemscore.CHOScore>
0.0000

> <Gold.PLP.Chemscore.Metal>
0.0000

> <Gold.Chemscore.Hbonds>
donor molecule, donor type, donor heavy atom, donor atom, acceptor molecule, acceptor atom, score
      L1  H    11    24       P1  2456  0.88

> <Gold.PLP.Chemscore.Internal.Correction>
0.0001

