#       Name:                EN300-378347_i001
#       Creating user name   fsindt
#       Creation time:       Tue Feb 28 13:45:12 2023


#       File generated by GOLD software.
#

@<TRIPOS>MOLECULE
EN300-378347_i001|amine_1|mol2|4665|dock18
    24    24     1
SMALL
USER_CHARGES


@<TRIPOS>ATOM
      1 C1          -0.9421 -10.0713  11.4693 C.3            1 <1>                0.0000
      2 C2          -1.6423 -11.4092  11.2229 C.3            1 <1>                0.0000
      3 C3          -2.9664 -11.1656  10.4961 C.3            1 <1>                0.0000
      4 C4          -0.7593 -12.2899  10.3768 C.ar           1 <1>                0.0000
      5 C5          -0.4056 -13.5471  10.8253 C.ar           1 <1>                0.0000
      6 C6           0.4078 -14.3587  10.0453 C.ar           1 <1>                0.0000
      7 N7           0.7664 -15.6331  10.4987 N.pl3          1 <1>                0.0000
      8 C8           0.8646 -13.9052   8.8150 C.ar           1 <1>                0.0000
      9 C9           0.5097 -12.6474   8.3680 C.ar           1 <1>                0.0000
     10 C10         -0.3069 -11.8396   9.1452 C.ar           1 <1>                0.0000
     11 O11         -0.6561 -10.6014   8.7041 O.3            1 <1>                0.0000
     12 H12         -1.5807  -9.4342  12.0812 H              1 <1>                0.0000
     13 H13          0.0013 -10.2448  11.9870 H              1 <1>                0.0000
     14 H14         -0.7480  -9.5816  10.5149 H              1 <1>                0.0000
     15 H15         -1.8363 -11.8988  12.1772 H              1 <1>                0.0000
     16 H16         -2.7723 -10.6759   9.5417 H              1 <1>                0.0000
     17 H17         -3.4652 -12.1187  10.3205 H              1 <1>                0.0000
     18 H18         -3.6050 -10.5286  11.1081 H              1 <1>                0.0000
     19 H19         -0.7611 -13.8989  11.7825 H              1 <1>                0.0000
     20 H20          1.4974 -14.5355   8.2079 H              1 <1>                0.0000
     21 H21          0.8652 -12.2942   7.4112 H              1 <1>                0.0000
     22 H22          0.4469 -15.9498  11.3580 H              1 <1>                0.0000
     23 H23          1.3345 -16.1997   9.9536 H              1 <1>                0.0000
     24 H24          0.0526 -10.1348   8.2404 H              1 <1>                0.0000
@<TRIPOS>BOND
    1    1    2 1     
    2    1   12 1     
    3    1   13 1     
    4    1   14 1     
    5    2    3 1     
    6    2    4 1     
    7    2   15 1     
    8    3   16 1     
    9    3   17 1     
   10    3   18 1     
   11    4    5 ar    
   12    4   10 ar    
   13    5    6 ar    
   14    5   19 1     
   15    6    7 1     
   16    6    8 ar    
   17    7   22 1     
   18    7   23 1     
   19    8    9 ar    
   20    8   20 1     
   21    9   10 ar    
   22    9   21 1     
   23   10   11 1     
   24   11   24 1     
@<TRIPOS>SUBSTRUCTURE
      1 ****           1
@<TRIPOS>SET
DONOR_HYDROGENS      STATIC     ATOMS    <user>   **** ""
3 22 23 24
ATOM$RED        STATIC     ATOMS    COLORGROUP SYSTEM
3 22 23 24
@<TRIPOS>COMMENT
> <Gold.Version>
2022.2.0

> <Gold.Id.Protein>
3pbl|protein|mol2

> <Gold.Protein.RotatedTorsions>
[ 1303 1298 1297 1294 ] final -178.09 input  179.99 | X-H torsion
[ 2461 2456 2455 2452 ] final   14.45 input   30.03 | X-H torsion
[ 2515 2510 2509 2506 ] final  153.12 input  -89.99 | X-H torsion
[ 3721 3712 3711 3710 ] final  141.60 input -179.91 | X-H torsion
[ 3841 3832 3831 3830 ] final  165.85 input -179.91 | X-H torsion
[ 3767 3762 3761 3758 ] final  -64.86 input  -89.99 | X-H torsion
[ 2472 2467 2466 2463 ] final  132.87 input  -89.97 | X-H torsion

> <Gold.Protein.ActiveResidues>
 VAL82   VAL86   LEU89   PHE106  VAL107  ASP110  VAL111  MET112  CYS114  THR115 
 CYS181  SER182  ILE183  PHE188  VAL189  ILE190  SER192  SER193  SER196  TRP342 
 PHE345  PHE346  HIS349  VAL350  TYR365  THR369  GLY372  TYR373 

> <Gold.Protein.RotatedAtoms>
    4.8447   -8.8502    4.6642 H   0  0  0  0  0  0  0  0  0  0  0  0  # atno 1303 bound_to 1298
    1.2701   -7.9315    7.0540 H   0  0  0  0  0  0  0  0  0  0  0  0  # atno 2461 bound_to 2456
   -5.4868   -5.1499    8.3177 H   0  0  0  0  0  0  0  0  0  0  0  0  # atno 2472 bound_to 2467
    2.1598   -8.6900    6.0537 H   0  0  0  0  0  0  0  0  0  0  0  0  # atno 2515 bound_to 2510
   -3.1566  -16.9604   13.1309 H   0  0  0  0  0  0  0  0  0  0  0  0  # atno 3721 bound_to 3712
   -5.4369  -22.0258   10.8771 H   0  0  0  0  0  0  0  0  0  0  0  0  # atno 3767 bound_to 3762
    3.0603  -20.2164    8.4969 H   0  0  0  0  0  0  0  0  0  0  0  0  # atno 3841 bound_to 3832
    4.0344  -10.2678    4.6506 LP  0  0  0  0  0  0  0  0  0  0  0  0  # atno 4297 bound_to 1298
    3.4828   -9.0035    3.7766 LP  0  0  0  0  0  0  0  0  0  0  0  0  # atno 4298 bound_to 1298
    0.4414   -9.0613    7.8933 LP  0  0  0  0  0  0  0  0  0  0  0  0  # atno 4299 bound_to 2456
    2.0262   -8.8152    8.2007 LP  0  0  0  0  0  0  0  0  0  0  0  0  # atno 4300 bound_to 2456
    2.3108   -7.4158    5.0440 LP  0  0  0  0  0  0  0  0  0  0  0  0  # atno 4301 bound_to 2510
    2.8263   -8.8932    4.5771 LP  0  0  0  0  0  0  0  0  0  0  0  0  # atno 4302 bound_to 2510
   -2.6082  -18.2136   13.9713 LP  0  0  0  0  0  0  0  0  0  0  0  0  # atno 4306 bound_to 3712
   -3.2751  -16.9317   14.7318 LP  0  0  0  0  0  0  0  0  0  0  0  0  # atno 4307 bound_to 3712
    2.1592  -21.0740    9.5110 LP  0  0  0  0  0  0  0  0  0  0  0  0  # atno 4314 bound_to 3832
    1.5351  -19.7784    8.7374 LP  0  0  0  0  0  0  0  0  0  0  0  0  # atno 4315 bound_to 3832
   -4.0536  -22.5932   11.5339 LP  0  0  0  0  0  0  0  0  0  0  0  0  # atno 4318 bound_to 3762
   -4.6371  -23.2558   10.1601 LP  0  0  0  0  0  0  0  0  0  0  0  0  # atno 4319 bound_to 3762
   -3.9353   -4.8344    7.9180 LP  0  0  0  0  0  0  0  0  0  0  0  0  # atno 4320 bound_to 2467
   -4.2951   -5.4093    9.4035 LP  0  0  0  0  0  0  0  0  0  0  0  0  # atno 4321 bound_to 2467

> <Gold.Score>
     Score     S(PLP)   S(hbond)     S(cho)   S(metal)  DE(clash)   DE(tors)     intcor
     39.61     -39.98       1.98       0.00       0.00       6.25       0.04       0.00

> <Gold.PLP.Fitness>
39.6088

> <Gold.PLP.PLP>
-39.9752

> <Gold.PLP.part.hbond>
-2.0000

> <Gold.PLP.part.metal>
0.0000

> <Gold.PLP.part.buried>
-3.5424

> <Gold.PLP.part.nonpolar>
-34.7929

> <Gold.PLP.part.repulsive>
0.0000

> <Gold.PLP.ligand.clash>
6.2463

> <Gold.PLP.ligand.torsion>
0.0350

> <Gold.PLP.Chemscore.Hbond>
1.9833

> <Gold.PLP.Chemscore.CHOScore>
0.0000

> <Gold.PLP.Chemscore.Metal>
0.0000

> <Gold.Chemscore.Hbonds>
donor molecule, donor type, donor heavy atom, donor atom, acceptor molecule, acceptor atom, score
      L1  H     7    23       P1  1227  1.00
      L1  H    11    24       P1  2456  0.98

> <Gold.PLP.Chemscore.Internal.Correction>
0.0001

