#       Name:                EN300-378347_i001
#       Creating user name   fsindt
#       Creation time:       Tue Feb 28 13:45:13 2023


#       File generated by GOLD software.
#

@<TRIPOS>MOLECULE
EN300-378347_i001|amine_1|mol2|4665|dock20
    24    24     1
SMALL
USER_CHARGES


@<TRIPOS>ATOM
      1 C1           0.2031 -15.8543   7.7995 C.3            1 <1>                0.0000
      2 C2           1.0220 -14.6770   8.3328 C.3            1 <1>                0.0000
      3 C3           1.2594 -13.6691   7.2065 C.3            1 <1>                0.0000
      4 C4           0.2694 -14.0088   9.4546 C.ar           1 <1>                0.0000
      5 C5          -0.2197 -12.7279   9.2906 C.ar           1 <1>                0.0000
      6 C6          -0.9136 -12.1125  10.3243 C.ar           1 <1>                0.0000
      7 N7          -1.4101 -10.8147  10.1590 N.pl3          1 <1>                0.0000
      8 C8          -1.1148 -12.7858  11.5218 C.ar           1 <1>                0.0000
      9 C9          -0.6248 -14.0670  11.6839 C.ar           1 <1>                0.0000
     10 C10          0.0634 -14.6829  10.6493 C.ar           1 <1>                0.0000
     11 O11          0.5452 -15.9445  10.8098 O.3            1 <1>                0.0000
     12 H12          0.7474 -16.3375   6.9881 H              1 <1>                0.0000
     13 H13          0.0338 -16.5723   8.6019 H              1 <1>                0.0000
     14 H14         -0.7555 -15.4916   7.4284 H              1 <1>                0.0000
     15 H15          1.9806 -15.0398   8.7039 H              1 <1>                0.0000
     16 H16          0.3008 -13.3064   6.8354 H              1 <1>                0.0000
     17 H17          1.8429 -12.8304   7.5865 H              1 <1>                0.0000
     18 H18          1.8038 -14.1524   6.3952 H              1 <1>                0.0000
     19 H19         -0.0625 -12.2048   8.3590 H              1 <1>                0.0000
     20 H20         -1.6540 -12.3079  12.3263 H              1 <1>                0.0000
     21 H21         -0.7809 -14.5909  12.6155 H              1 <1>                0.0000
     22 H22         -1.2697 -10.3446   9.3222 H              1 <1>                0.0000
     23 H23         -1.8947 -10.3851  10.8812 H              1 <1>                0.0000
     24 H24          1.2298 -16.1881  10.1719 H              1 <1>                0.0000
@<TRIPOS>BOND
    1    1    2 1     
    2    1   12 1     
    3    1   13 1     
    4    1   14 1     
    5    2    3 1     
    6    2    4 1     
    7    2   15 1     
    8    3   16 1     
    9    3   17 1     
   10    3   18 1     
   11    4    5 ar    
   12    4   10 ar    
   13    5    6 ar    
   14    5   19 1     
   15    6    7 1     
   16    6    8 ar    
   17    7   22 1     
   18    7   23 1     
   19    8    9 ar    
   20    8   20 1     
   21    9   10 ar    
   22    9   21 1     
   23   10   11 1     
   24   11   24 1     
@<TRIPOS>SUBSTRUCTURE
      1 ****           1
@<TRIPOS>SET
DONOR_HYDROGENS      STATIC     ATOMS    <user>   **** ""
3 22 23 24
ATOM$RED        STATIC     ATOMS    COLORGROUP SYSTEM
3 22 23 24
@<TRIPOS>COMMENT
> <Gold.Version>
2022.2.0

> <Gold.Id.Protein>
3pbl|protein|mol2

> <Gold.Protein.RotatedTorsions>
[ 1303 1298 1297 1294 ] final -166.96 input  179.99 | X-H torsion
[ 2461 2456 2455 2452 ] final  -28.19 input   30.03 | X-H torsion
[ 2515 2510 2509 2506 ] final  108.87 input  -89.99 | X-H torsion
[ 3721 3712 3711 3710 ] final  -84.88 input -179.91 | X-H torsion
[ 3841 3832 3831 3830 ] final  -15.49 input -179.91 | X-H torsion
[ 3767 3762 3761 3758 ] final  -31.28 input  -89.99 | X-H torsion
[ 2472 2467 2466 2463 ] final   40.29 input  -89.97 | X-H torsion

> <Gold.Protein.ActiveResidues>
 VAL82   VAL86   LEU89   PHE106  VAL107  ASP110  VAL111  MET112  CYS114  THR115 
 CYS181  SER182  ILE183  PHE188  VAL189  ILE190  SER192  SER193  SER196  TRP342 
 PHE345  PHE346  HIS349  VAL350  TYR365  THR369  GLY372  TYR373 

> <Gold.Protein.RotatedAtoms>
    4.7696   -8.7192    4.5612 H   0  0  0  0  0  0  0  0  0  0  0  0  # atno 1303 bound_to 1298
    0.6438   -8.2052    7.1088 H   0  0  0  0  0  0  0  0  0  0  0  0  # atno 2461 bound_to 2456
   -4.3236   -4.7992    7.6997 H   0  0  0  0  0  0  0  0  0  0  0  0  # atno 2472 bound_to 2467
    2.0295   -7.9937    6.0067 H   0  0  0  0  0  0  0  0  0  0  0  0  # atno 2515 bound_to 2510
   -2.9871  -17.0106   14.7129 H   0  0  0  0  0  0  0  0  0  0  0  0  # atno 3721 bound_to 3712
   -5.5018  -22.3375   10.4349 H   0  0  0  0  0  0  0  0  0  0  0  0  # atno 3767 bound_to 3762
    1.6267  -20.3043    9.4633 H   0  0  0  0  0  0  0  0  0  0  0  0  # atno 3841 bound_to 3832
    4.1879  -10.2339    4.7441 LP  0  0  0  0  0  0  0  0  0  0  0  0  # atno 4297 bound_to 1298
    3.4044   -9.1685    3.7862 LP  0  0  0  0  0  0  0  0  0  0  0  0  # atno 4298 bound_to 1298
    0.9498   -9.2855    8.2948 LP  0  0  0  0  0  0  0  0  0  0  0  0  # atno 4299 bound_to 2456
    2.1440   -8.3173    7.7444 LP  0  0  0  0  0  0  0  0  0  0  0  0  # atno 4300 bound_to 2456
    2.6138   -7.7578    4.5005 LP  0  0  0  0  0  0  0  0  0  0  0  0  # atno 4301 bound_to 2510
    2.6536   -9.2477    5.1677 LP  0  0  0  0  0  0  0  0  0  0  0  0  # atno 4302 bound_to 2510
   -3.4415  -16.8823   13.1783 LP  0  0  0  0  0  0  0  0  0  0  0  0  # atno 4306 bound_to 3712
   -2.6374  -18.2050   13.6984 LP  0  0  0  0  0  0  0  0  0  0  0  0  # atno 4307 bound_to 3712
    2.3789  -19.7266    8.1686 LP  0  0  0  0  0  0  0  0  0  0  0  0  # atno 4314 bound_to 3832
    2.9714  -21.0241    8.9635 LP  0  0  0  0  0  0  0  0  0  0  0  0  # atno 4315 bound_to 3832
   -4.4187  -22.2059   11.6500 LP  0  0  0  0  0  0  0  0  0  0  0  0  # atno 4318 bound_to 3762
   -4.2072  -23.3316   10.4861 LP  0  0  0  0  0  0  0  0  0  0  0  0  # atno 4319 bound_to 3762
   -3.9135   -5.2943    9.2008 LP  0  0  0  0  0  0  0  0  0  0  0  0  # atno 4320 bound_to 2467
   -5.4797   -5.3000    8.7385 LP  0  0  0  0  0  0  0  0  0  0  0  0  # atno 4321 bound_to 2467

> <Gold.Score>
     Score     S(PLP)   S(hbond)     S(cho)   S(metal)  DE(clash)   DE(tors)     intcor
     37.94     -36.17       0.98       0.00       0.00       0.96       0.10       0.00

> <Gold.PLP.Fitness>
37.9365

> <Gold.PLP.PLP>
-36.1696

> <Gold.PLP.part.hbond>
-1.0000

> <Gold.PLP.part.metal>
0.0000

> <Gold.PLP.part.buried>
-3.7560

> <Gold.PLP.part.nonpolar>
-32.2482

> <Gold.PLP.part.repulsive>
0.0081

> <Gold.PLP.ligand.clash>
0.9600

> <Gold.PLP.ligand.torsion>
0.1006

> <Gold.PLP.Chemscore.Hbond>
0.9760

> <Gold.PLP.Chemscore.CHOScore>
0.0000

> <Gold.PLP.Chemscore.Metal>
0.0000

> <Gold.Chemscore.Hbonds>
donor molecule, donor type, donor heavy atom, donor atom, acceptor molecule, acceptor atom, score
      L1  H    11    24       P1  1227  0.98

> <Gold.PLP.Chemscore.Internal.Correction>
0.0001

