#       Name:                EN300-378347_i001
#       Creating user name   fsindt
#       Creation time:       Tue Feb 28 13:45:10 2023


#       File generated by GOLD software.
#

@<TRIPOS>MOLECULE
EN300-378347_i001|amine_1|mol2|4665|dock14
    24    24     1
SMALL
USER_CHARGES


@<TRIPOS>ATOM
      1 C1           1.0896 -11.9757   7.8497 C.3            1 <1>                0.0000
      2 C2           0.2808 -13.2736   7.8971 C.3            1 <1>                0.0000
      3 C3           1.0648 -14.3888   7.2026 C.3            1 <1>                0.0000
      4 C4           0.0283 -13.6559   9.3329 C.ar           1 <1>                0.0000
      5 C5           0.5885 -14.8078   9.8490 C.ar           1 <1>                0.0000
      6 C6           0.3561 -15.1597  11.1722 C.ar           1 <1>                0.0000
      7 N7           0.9237 -16.3264  11.6964 N.pl3          1 <1>                0.0000
      8 C8          -0.4394 -14.3531  11.9749 C.ar           1 <1>                0.0000
      9 C9          -0.9989 -13.2013  11.4568 C.ar           1 <1>                0.0000
     10 C10         -0.7620 -12.8478  10.1369 C.ar           1 <1>                0.0000
     11 O11         -1.3130 -11.7134   9.6278 O.3            1 <1>                0.0000
     12 H12          1.2722 -11.6992   6.8113 H              1 <1>                0.0000
     13 H13          0.5311 -11.1812   8.3446 H              1 <1>                0.0000
     14 H14          2.0419 -12.1222   8.3595 H              1 <1>                0.0000
     15 H15         -0.6715 -13.1270   7.3874 H              1 <1>                0.0000
     16 H16          2.0171 -14.5353   7.7124 H              1 <1>                0.0000
     17 H17          0.4885 -15.3135   7.2364 H              1 <1>                0.0000
     18 H18          1.2473 -14.1123   6.1642 H              1 <1>                0.0000
     19 H19          1.2069 -15.4348   9.2239 H              1 <1>                0.0000
     20 H20         -0.6210 -14.6262  13.0039 H              1 <1>                0.0000
     21 H21         -1.6180 -12.5739  12.0809 H              1 <1>                0.0000
     22 H22          1.4797 -16.8896  11.1355 H              1 <1>                0.0000
     23 H23          0.7612 -16.5720  12.6206 H              1 <1>                0.0000
     24 H24         -1.3676 -10.9844  10.2607 H              1 <1>                0.0000
@<TRIPOS>BOND
    1    1    2 1     
    2    1   12 1     
    3    1   13 1     
    4    1   14 1     
    5    2    3 1     
    6    2    4 1     
    7    2   15 1     
    8    3   16 1     
    9    3   17 1     
   10    3   18 1     
   11    4    5 ar    
   12    4   10 ar    
   13    5    6 ar    
   14    5   19 1     
   15    6    7 1     
   16    6    8 ar    
   17    7   22 1     
   18    7   23 1     
   19    8    9 ar    
   20    8   20 1     
   21    9   10 ar    
   22    9   21 1     
   23   10   11 1     
   24   11   24 1     
@<TRIPOS>SUBSTRUCTURE
      1 ****           1
@<TRIPOS>SET
DONOR_HYDROGENS      STATIC     ATOMS    <user>   **** ""
3 22 23 24
ATOM$RED        STATIC     ATOMS    COLORGROUP SYSTEM
3 22 23 24
@<TRIPOS>COMMENT
> <Gold.Version>
2022.2.0

> <Gold.Id.Protein>
3pbl|protein|mol2

> <Gold.Protein.RotatedTorsions>
[ 1303 1298 1297 1294 ] final  -26.14 input  179.99 | X-H torsion
[ 2461 2456 2455 2452 ] final  -41.47 input   30.03 | X-H torsion
[ 2515 2510 2509 2506 ] final   10.77 input  -89.99 | X-H torsion
[ 3721 3712 3711 3710 ] final   -6.83 input -179.91 | X-H torsion
[ 3841 3832 3831 3830 ] final  -20.72 input -179.91 | X-H torsion
[ 3767 3762 3761 3758 ] final -177.90 input  -89.99 | X-H torsion
[ 2472 2467 2466 2463 ] final -179.88 input  -89.97 | X-H torsion

> <Gold.Protein.ActiveResidues>
 VAL82   VAL86   LEU89   PHE106  VAL107  ASP110  VAL111  MET112  CYS114  THR115 
 CYS181  SER182  ILE183  PHE188  VAL189  ILE190  SER192  SER193  SER196  TRP342 
 PHE345  PHE346  HIS349  VAL350  TYR365  THR369  GLY372  TYR373 

> <Gold.Protein.RotatedAtoms>
    3.3317   -9.4925    3.8620 H   0  0  0  0  0  0  0  0  0  0  0  0  # atno 1303 bound_to 1298
    0.5015   -8.3442    7.1980 H   0  0  0  0  0  0  0  0  0  0  0  0  # atno 2461 bound_to 2456
   -5.3456   -5.3878    9.0209 H   0  0  0  0  0  0  0  0  0  0  0  0  # atno 2472 bound_to 2467
    2.4664   -7.5295    4.7337 H   0  0  0  0  0  0  0  0  0  0  0  0  # atno 2515 bound_to 2510
   -2.5042  -17.9123   14.3339 H   0  0  0  0  0  0  0  0  0  0  0  0  # atno 3721 bound_to 3712
   -4.1139  -22.5070   11.5788 H   0  0  0  0  0  0  0  0  0  0  0  0  # atno 3767 bound_to 3762
    1.6011  -20.2415    9.4229 H   0  0  0  0  0  0  0  0  0  0  0  0  # atno 3841 bound_to 3832
    4.5669   -8.5433    4.3515 LP  0  0  0  0  0  0  0  0  0  0  0  0  # atno 4297 bound_to 1298
    4.4639  -10.0855    4.8783 LP  0  0  0  0  0  0  0  0  0  0  0  0  # atno 4298 bound_to 1298
    1.1566   -9.2821    8.3636 LP  0  0  0  0  0  0  0  0  0  0  0  0  # atno 4299 bound_to 2456
    2.0795   -8.1817    7.5864 LP  0  0  0  0  0  0  0  0  0  0  0  0  # atno 4300 bound_to 2456
    2.7635   -9.1310    4.8475 LP  0  0  0  0  0  0  0  0  0  0  0  0  # atno 4301 bound_to 2510
    2.0668   -8.3390    6.0942 LP  0  0  0  0  0  0  0  0  0  0  0  0  # atno 4302 bound_to 2510
   -3.4779  -16.6358   14.3580 LP  0  0  0  0  0  0  0  0  0  0  0  0  # atno 4306 bound_to 3712
   -3.1587  -17.4104   12.9563 LP  0  0  0  0  0  0  0  0  0  0  0  0  # atno 4307 bound_to 3712
    2.4569  -19.7625    8.1524 LP  0  0  0  0  0  0  0  0  0  0  0  0  # atno 4314 bound_to 3832
    2.9230  -21.0608    9.0263 LP  0  0  0  0  0  0  0  0  0  0  0  0  # atno 4315 bound_to 3832
   -4.5407  -23.2909   10.2112 LP  0  0  0  0  0  0  0  0  0  0  0  0  # atno 4318 bound_to 3762
   -5.4726  -22.0772   10.7813 LP  0  0  0  0  0  0  0  0  0  0  0  0  # atno 4319 bound_to 3762
   -4.6452   -4.8194    7.6597 LP  0  0  0  0  0  0  0  0  0  0  0  0  # atno 4320 bound_to 2467
   -3.7263   -5.1864    8.9587 LP  0  0  0  0  0  0  0  0  0  0  0  0  # atno 4321 bound_to 2467

> <Gold.Score>
     Score     S(PLP)   S(hbond)     S(cho)   S(metal)  DE(clash)   DE(tors)     intcor
     37.65     -35.81       1.00       0.00       0.00       1.03       0.06       0.00

> <Gold.PLP.Fitness>
37.6533

> <Gold.PLP.PLP>
-35.8069

> <Gold.PLP.part.hbond>
-1.0000

> <Gold.PLP.part.metal>
0.0000

> <Gold.PLP.part.buried>
-3.6003

> <Gold.PLP.part.nonpolar>
-31.7999

> <Gold.PLP.part.repulsive>
0.0000

> <Gold.PLP.ligand.clash>
1.0343

> <Gold.PLP.ligand.torsion>
0.0597

> <Gold.PLP.Chemscore.Hbond>
1.0000

> <Gold.PLP.Chemscore.CHOScore>
0.0000

> <Gold.PLP.Chemscore.Metal>
0.0000

> <Gold.Chemscore.Hbonds>
donor molecule, donor type, donor heavy atom, donor atom, acceptor molecule, acceptor atom, score
      L1  H     7    22       P1  1227  1.00

> <Gold.PLP.Chemscore.Internal.Correction>
0.0001

