#       Name:                EN300-378347_i001
#       Creating user name   fsindt
#       Creation time:       Tue Feb 28 13:45:08 2023


#       File generated by GOLD software.
#

@<TRIPOS>MOLECULE
EN300-378347_i001|amine_1|mol2|4665|dock9
    24    24     1
SMALL
USER_CHARGES


@<TRIPOS>ATOM
      1 C1           0.4209 -14.7029   6.9494 C.3            1 <1>                0.0000
      2 C2           1.0384 -13.5050   7.6740 C.3            1 <1>                0.0000
      3 C3           1.0952 -12.3077   6.7232 C.3            1 <1>                0.0000
      4 C4           0.1960 -13.1547   8.8735 C.ar           1 <1>                0.0000
      5 C5          -0.5945 -12.0226   8.8547 C.ar           1 <1>                0.0000
      6 C6          -1.3710 -11.7001   9.9600 C.ar           1 <1>                0.0000
      7 N7          -2.1728 -10.5533   9.9418 N.pl3          1 <1>                0.0000
      8 C8          -1.3519 -12.5163  11.0830 C.ar           1 <1>                0.0000
      9 C9          -0.5606 -13.6484  11.0999 C.ar           1 <1>                0.0000
     10 C10          0.2106 -13.9725   9.9938 C.ar           1 <1>                0.0000
     11 O11          0.9891 -15.0875  10.0112 O.3            1 <1>                0.0000
     12 H12          1.0302 -14.9562   6.0819 H              1 <1>                0.0000
     13 H13          0.3804 -15.5559   7.6268 H              1 <1>                0.0000
     14 H14         -0.5879 -14.4497   6.6234 H              1 <1>                0.0000
     15 H15          2.0473 -13.7583   8.0000 H              1 <1>                0.0000
     16 H16          0.0863 -12.0545   6.3972 H              1 <1>                0.0000
     17 H17          1.5351 -11.4544   7.2395 H              1 <1>                0.0000
     18 H18          1.7045 -12.5611   5.8558 H              1 <1>                0.0000
     19 H19         -0.6086 -11.3880   7.9809 H              1 <1>                0.0000
     20 H20         -1.9552 -12.2661  11.9431 H              1 <1>                0.0000
     21 H21         -0.5452 -14.2833  11.9735 H              1 <1>                0.0000
     22 H22         -2.1863  -9.9834   9.1570 H              1 <1>                0.0000
     23 H23         -2.7151 -10.3283  10.7140 H              1 <1>                0.0000
     24 H24          1.1425 -15.4737   9.1381 H              1 <1>                0.0000
@<TRIPOS>BOND
    1    1    2 1     
    2    1   12 1     
    3    1   13 1     
    4    1   14 1     
    5    2    3 1     
    6    2    4 1     
    7    2   15 1     
    8    3   16 1     
    9    3   17 1     
   10    3   18 1     
   11    4    5 ar    
   12    4   10 ar    
   13    5    6 ar    
   14    5   19 1     
   15    6    7 1     
   16    6    8 ar    
   17    7   22 1     
   18    7   23 1     
   19    8    9 ar    
   20    8   20 1     
   21    9   10 ar    
   22    9   21 1     
   23   10   11 1     
   24   11   24 1     
@<TRIPOS>SUBSTRUCTURE
      1 ****           1
@<TRIPOS>SET
DONOR_HYDROGENS      STATIC     ATOMS    <user>   **** ""
3 22 23 24
ATOM$RED        STATIC     ATOMS    COLORGROUP SYSTEM
3 22 23 24
@<TRIPOS>COMMENT
> <Gold.Version>
2022.2.0

> <Gold.Id.Protein>
3pbl|protein|mol2

> <Gold.Protein.RotatedTorsions>
[ 1303 1298 1297 1294 ] final   78.40 input  179.99 | X-H torsion
[ 2461 2456 2455 2452 ] final  131.51 input   30.03 | X-H torsion
[ 2515 2510 2509 2506 ] final  107.15 input  -89.99 | X-H torsion
[ 3721 3712 3711 3710 ] final  102.91 input -179.91 | X-H torsion
[ 3841 3832 3831 3830 ] final  -24.92 input -179.91 | X-H torsion
[ 3767 3762 3761 3758 ] final  161.07 input  -89.99 | X-H torsion
[ 2472 2467 2466 2463 ] final  155.61 input  -89.97 | X-H torsion

> <Gold.Protein.ActiveResidues>
 VAL82   VAL86   LEU89   PHE106  VAL107  ASP110  VAL111  MET112  CYS114  THR115 
 CYS181  SER182  ILE183  PHE188  VAL189  ILE190  SER192  SER193  SER196  TRP342 
 PHE345  PHE346  HIS349  VAL350  TYR365  THR369  GLY372  TYR373 

> <Gold.Protein.RotatedAtoms>
    4.2610  -10.2056    4.7845 H   0  0  0  0  0  0  0  0  0  0  0  0  # atno 1303 bound_to 1298
    2.0500   -8.7815    8.1753 H   0  0  0  0  0  0  0  0  0  0  0  0  # atno 2461 bound_to 2456
   -5.4960   -5.2767    8.6668 H   0  0  0  0  0  0  0  0  0  0  0  0  # atno 2472 bound_to 2467
    2.0290   -7.9681    5.9948 H   0  0  0  0  0  0  0  0  0  0  0  0  # atno 2515 bound_to 2510
   -2.8802  -17.4559   13.0463 H   0  0  0  0  0  0  0  0  0  0  0  0  # atno 3721 bound_to 3712
   -3.9604  -22.7663   11.4126 H   0  0  0  0  0  0  0  0  0  0  0  0  # atno 3767 bound_to 3762
    1.5850  -20.1911    9.3878 H   0  0  0  0  0  0  0  0  0  0  0  0  # atno 3841 bound_to 3832
    3.3762   -9.2509    3.7986 LP  0  0  0  0  0  0  0  0  0  0  0  0  # atno 4297 bound_to 1298
    4.7249   -8.6645    4.5083 LP  0  0  0  0  0  0  0  0  0  0  0  0  # atno 4298 bound_to 1298
    1.2231   -7.9399    7.0459 LP  0  0  0  0  0  0  0  0  0  0  0  0  # atno 4299 bound_to 2456
    0.4649   -9.0868    7.9270 LP  0  0  0  0  0  0  0  0  0  0  0  0  # atno 4300 bound_to 2456
    2.6246   -7.7798    4.4863 LP  0  0  0  0  0  0  0  0  0  0  0  0  # atno 4301 bound_to 2510
    2.6434   -9.2514    5.1938 LP  0  0  0  0  0  0  0  0  0  0  0  0  # atno 4302 bound_to 2510
   -2.6923  -17.9765   14.5535 LP  0  0  0  0  0  0  0  0  0  0  0  0  # atno 4306 bound_to 3712
   -3.5102  -16.5966   14.2474 LP  0  0  0  0  0  0  0  0  0  0  0  0  # atno 4307 bound_to 3712
    2.5184  -19.7952    8.1436 LP  0  0  0  0  0  0  0  0  0  0  0  0  # atno 4314 bound_to 3832
    2.8801  -21.0863    9.0757 LP  0  0  0  0  0  0  0  0  0  0  0  0  # atno 4315 bound_to 3832
   -4.8333  -23.1574   10.0890 LP  0  0  0  0  0  0  0  0  0  0  0  0  # atno 4318 bound_to 3762
   -5.3334  -21.9514   11.0697 LP  0  0  0  0  0  0  0  0  0  0  0  0  # atno 4319 bound_to 3762
   -4.2507   -4.7994    7.7246 LP  0  0  0  0  0  0  0  0  0  0  0  0  # atno 4320 bound_to 2467
   -3.9704   -5.3174    9.2477 LP  0  0  0  0  0  0  0  0  0  0  0  0  # atno 4321 bound_to 2467

> <Gold.Score>
     Score     S(PLP)   S(hbond)     S(cho)   S(metal)  DE(clash)   DE(tors)     intcor
     37.96     -39.10       0.00       0.00       0.00       0.55       0.30       0.00

> <Gold.PLP.Fitness>
37.9613

> <Gold.PLP.PLP>
-39.1020

> <Gold.PLP.part.hbond>
-1.0000

> <Gold.PLP.part.metal>
0.0000

> <Gold.PLP.part.buried>
-4.1803

> <Gold.PLP.part.nonpolar>
-34.7640

> <Gold.PLP.part.repulsive>
0.0281

> <Gold.PLP.ligand.clash>
0.5498

> <Gold.PLP.ligand.torsion>
0.2955

> <Gold.PLP.Chemscore.Hbond>
0.0000

> <Gold.PLP.Chemscore.CHOScore>
0.0000

> <Gold.PLP.Chemscore.Metal>
0.0000

> <Gold.PLP.Chemscore.Internal.Correction>
0.0001

