#       Name:                EN300-378347_i001
#       Creating user name   fsindt
#       Creation time:       Tue Feb 28 13:45:04 2023


#       File generated by GOLD software.
#

@<TRIPOS>MOLECULE
EN300-378347_i001|amine_1|mol2|4665|dock1
    24    24     1
SMALL
USER_CHARGES


@<TRIPOS>ATOM
      1 C1          -2.2221 -10.8164   9.5794 C.3            1 <1>                0.0000
      2 C2          -0.9421 -11.1462  10.3500 C.3            1 <1>                0.0000
      3 C3          -1.3017 -11.5958  11.7675 C.3            1 <1>                0.0000
      4 C4          -0.2022 -12.2534   9.6443 C.ar           1 <1>                0.0000
      5 C5          -0.0757 -13.4907  10.2443 C.ar           1 <1>                0.0000
      6 C6           0.6059 -14.5109   9.5936 C.ar           1 <1>                0.0000
      7 N7           0.7342 -15.7653  10.2005 N.pl3          1 <1>                0.0000
      8 C8           1.1596 -14.2858   8.3404 C.ar           1 <1>                0.0000
      9 C9           1.0320 -13.0475   7.7418 C.ar           1 <1>                0.0000
     10 C10          0.3467 -12.0308   8.3899 C.ar           1 <1>                0.0000
     11 O11          0.2213 -10.8120   7.7997 O.3            1 <1>                0.0000
     12 H12         -2.7573 -10.0156  10.0898 H              1 <1>                0.0000
     13 H13         -1.9660 -10.4962   8.5695 H              1 <1>                0.0000
     14 H14         -2.8550 -11.7024   9.5300 H              1 <1>                0.0000
     15 H15         -0.3092 -10.2601  10.3993 H              1 <1>                0.0000
     16 H16         -1.9346 -12.4818  11.7181 H              1 <1>                0.0000
     17 H17         -0.3898 -11.8308  12.3165 H              1 <1>                0.0000
     18 H18         -1.8368 -10.7950  12.2779 H              1 <1>                0.0000
     19 H19         -0.5064 -13.6648  11.2192 H              1 <1>                0.0000
     20 H20          1.6900 -15.0785   7.8339 H              1 <1>                0.0000
     21 H21          1.4629 -12.8721   6.7671 H              1 <1>                0.0000
     22 H22          0.3470 -15.9224  11.0759 H              1 <1>                0.0000
     23 H23          1.2103 -16.4777   9.7459 H              1 <1>                0.0000
     24 H24          0.0600 -10.8511   6.8471 H              1 <1>                0.0000
@<TRIPOS>BOND
    1    1    2 1     
    2    1   12 1     
    3    1   13 1     
    4    1   14 1     
    5    2    3 1     
    6    2    4 1     
    7    2   15 1     
    8    3   16 1     
    9    3   17 1     
   10    3   18 1     
   11    4    5 ar    
   12    4   10 ar    
   13    5    6 ar    
   14    5   19 1     
   15    6    7 1     
   16    6    8 ar    
   17    7   22 1     
   18    7   23 1     
   19    8    9 ar    
   20    8   20 1     
   21    9   10 ar    
   22    9   21 1     
   23   10   11 1     
   24   11   24 1     
@<TRIPOS>SUBSTRUCTURE
      1 ****           1
@<TRIPOS>SET
DONOR_HYDROGENS      STATIC     ATOMS    <user>   **** ""
3 22 23 24
ATOM$RED        STATIC     ATOMS    COLORGROUP SYSTEM
3 22 23 24
@<TRIPOS>COMMENT
> <Gold.Version>
2022.2.0

> <Gold.Id.Protein>
3pbl|protein|mol2

> <Gold.Protein.RotatedTorsions>
[ 1303 1298 1297 1294 ] final  -62.31 input  179.99 | X-H torsion
[ 2461 2456 2455 2452 ] final -137.63 input   30.03 | X-H torsion
[ 2515 2510 2509 2506 ] final  -93.47 input  -89.99 | X-H torsion
[ 3721 3712 3711 3710 ] final  -26.42 input -179.91 | X-H torsion
[ 3841 3832 3831 3830 ] final   92.86 input -179.91 | X-H torsion
[ 3767 3762 3761 3758 ] final -179.70 input  -89.99 | X-H torsion
[ 2472 2467 2466 2463 ] final   44.63 input  -89.97 | X-H torsion

> <Gold.Protein.ActiveResidues>
 VAL82   VAL86   LEU89   PHE106  VAL107  ASP110  VAL111  MET112  CYS114  THR115 
 CYS181  SER182  ILE183  PHE188  VAL189  ILE190  SER192  SER193  SER196  TRP342 
 PHE345  PHE346  HIS349  VAL350  TYR365  THR369  GLY372  TYR373 

> <Gold.Protein.RotatedAtoms>
    3.5189   -8.9441    3.7793 H   0  0  0  0  0  0  0  0  0  0  0  0  # atno 1303 bound_to 1298
    0.7960   -9.2623    8.2180 H   0  0  0  0  0  0  0  0  0  0  0  0  # atno 2461 bound_to 2456
   -4.3926   -4.8004    7.6820 H   0  0  0  0  0  0  0  0  0  0  0  0  # atno 2472 bound_to 2467
    2.8137   -8.9736    4.6486 H   0  0  0  0  0  0  0  0  0  0  0  0  # atno 2515 bound_to 2510
   -2.5842  -17.7380   14.5578 H   0  0  0  0  0  0  0  0  0  0  0  0  # atno 3721 bound_to 3712
   -4.0973  -22.5289   11.5681 H   0  0  0  0  0  0  0  0  0  0  0  0  # atno 3767 bound_to 3762
    2.8722  -20.9099    9.2343 H   0  0  0  0  0  0  0  0  0  0  0  0  # atno 3841 bound_to 3832
    4.8667   -8.9055    4.7003 LP  0  0  0  0  0  0  0  0  0  0  0  0  # atno 4297 bound_to 1298
    3.9769  -10.2719    4.6122 LP  0  0  0  0  0  0  0  0  0  0  0  0  # atno 4298 bound_to 1298
    2.1612   -8.4364    7.8693 LP  0  0  0  0  0  0  0  0  0  0  0  0  # atno 4299 bound_to 2456
    0.7804   -8.1097    7.0610 LP  0  0  0  0  0  0  0  0  0  0  0  0  # atno 4300 bound_to 2456
    2.1272   -8.5900    6.0794 LP  0  0  0  0  0  0  0  0  0  0  0  0  # atno 4301 bound_to 2510
    2.3557   -7.4352    4.9476 LP  0  0  0  0  0  0  0  0  0  0  0  0  # atno 4302 bound_to 2510
   -3.5490  -16.5597   14.0493 LP  0  0  0  0  0  0  0  0  0  0  0  0  # atno 4306 bound_to 3712
   -2.9953  -17.6878   13.0065 LP  0  0  0  0  0  0  0  0  0  0  0  0  # atno 4307 bound_to 3712
    1.4039  -20.2620    9.2517 LP  0  0  0  0  0  0  0  0  0  0  0  0  # atno 4314 bound_to 3832
    2.5075  -19.7891    8.1449 LP  0  0  0  0  0  0  0  0  0  0  0  0  # atno 4315 bound_to 3832
   -4.5653  -23.2828   10.1972 LP  0  0  0  0  0  0  0  0  0  0  0  0  # atno 4318 bound_to 3762
   -5.4645  -22.0633   10.8061 LP  0  0  0  0  0  0  0  0  0  0  0  0  # atno 4319 bound_to 3762
   -3.8650   -5.2719    9.1536 LP  0  0  0  0  0  0  0  0  0  0  0  0  # atno 4320 bound_to 2467
   -5.4592   -5.3211    8.8034 LP  0  0  0  0  0  0  0  0  0  0  0  0  # atno 4321 bound_to 2467

> <Gold.Score>
     Score     S(PLP)   S(hbond)     S(cho)   S(metal)  DE(clash)   DE(tors)     intcor
     43.34     -38.52       1.99       0.00       0.00       0.98       0.09       0.00

> <Gold.PLP.Fitness>
43.3425

> <Gold.PLP.PLP>
-38.5232

> <Gold.PLP.part.hbond>
-2.0000

> <Gold.PLP.part.metal>
0.0000

> <Gold.PLP.part.buried>
-3.6152

> <Gold.PLP.part.nonpolar>
-33.5211

> <Gold.PLP.part.repulsive>
0.0000

> <Gold.PLP.ligand.clash>
0.9817

> <Gold.PLP.ligand.torsion>
0.0876

> <Gold.PLP.Chemscore.Hbond>
1.9920

> <Gold.PLP.Chemscore.CHOScore>
0.0000

> <Gold.PLP.Chemscore.Metal>
0.0000

> <Gold.Chemscore.Hbonds>
donor molecule, donor type, donor heavy atom, donor atom, acceptor molecule, acceptor atom, score
      L1  H     7    23       P1  1227  1.00
      P1  H  2456  2461       L1    11  0.99

> <Gold.PLP.Chemscore.Internal.Correction>
0.0002

