#       Name:                EN300-378347_i001
#       Creating user name   fsindt
#       Creation time:       Tue Feb 28 13:45:06 2023


#       File generated by GOLD software.
#

@<TRIPOS>MOLECULE
EN300-378347_i001|amine_1|mol2|4665|dock6
    24    24     1
SMALL
USER_CHARGES


@<TRIPOS>ATOM
      1 C1          -1.0857 -13.2396  11.4085 C.3            1 <1>                0.0000
      2 C2          -1.0490 -12.0500  10.4470 C.3            1 <1>                0.0000
      3 C3          -0.4684 -10.8307  11.1661 C.3            1 <1>                0.0000
      4 C4          -0.1863 -12.3906   9.2591 C.ar           1 <1>                0.0000
      5 C5           0.5066 -13.5846   9.2292 C.ar           1 <1>                0.0000
      6 C6           1.3012 -13.8985   8.1343 C.ar           1 <1>                0.0000
      7 N7           2.0034 -15.1085   8.1027 N.pl3          1 <1>                0.0000
      8 C8           1.3982 -13.0113   7.0707 C.ar           1 <1>                0.0000
      9 C9           0.7043 -11.8174   7.1024 C.ar           1 <1>                0.0000
     10 C10         -0.0931 -11.5070   8.1938 C.ar           1 <1>                0.0000
     11 O11         -0.7762 -10.3314   8.2240 O.3            1 <1>                0.0000
     12 H12         -1.7096 -12.9932  12.2676 H              1 <1>                0.0000
     13 H13         -1.4992 -14.1083  10.8962 H              1 <1>                0.0000
     14 H14         -0.0742 -13.4648  11.7467 H              1 <1>                0.0000
     15 H15         -2.0605 -11.8249  10.1088 H              1 <1>                0.0000
     16 H16          0.5430 -11.0559  11.5043 H              1 <1>                0.0000
     17 H17         -0.4423  -9.9832  10.4811 H              1 <1>                0.0000
     18 H18         -1.0924 -10.5843  12.0252 H              1 <1>                0.0000
     19 H19          0.4309 -14.2740  10.0570 H              1 <1>                0.0000
     20 H20          2.0162 -13.2544   6.2190 H              1 <1>                0.0000
     21 H21          0.7799 -11.1269   6.2754 H              1 <1>                0.0000
     22 H22          1.9353 -15.7283   8.8457 H              1 <1>                0.0000
     23 H23          2.5584 -15.3275   7.3379 H              1 <1>                0.0000
     24 H24         -0.2507  -9.5643   7.9589 H              1 <1>                0.0000
@<TRIPOS>BOND
    1    1    2 1     
    2    1   12 1     
    3    1   13 1     
    4    1   14 1     
    5    2    3 1     
    6    2    4 1     
    7    2   15 1     
    8    3   16 1     
    9    3   17 1     
   10    3   18 1     
   11    4    5 ar    
   12    4   10 ar    
   13    5    6 ar    
   14    5   19 1     
   15    6    7 1     
   16    6    8 ar    
   17    7   22 1     
   18    7   23 1     
   19    8    9 ar    
   20    8   20 1     
   21    9   10 ar    
   22    9   21 1     
   23   10   11 1     
   24   11   24 1     
@<TRIPOS>SUBSTRUCTURE
      1 ****           1
@<TRIPOS>SET
DONOR_HYDROGENS      STATIC     ATOMS    <user>   **** ""
3 22 23 24
ATOM$RED        STATIC     ATOMS    COLORGROUP SYSTEM
3 22 23 24
@<TRIPOS>COMMENT
> <Gold.Version>
2022.2.0

> <Gold.Id.Protein>
3pbl|protein|mol2

> <Gold.Protein.RotatedTorsions>
[ 1303 1298 1297 1294 ] final -131.58 input  179.99 | X-H torsion
[ 2461 2456 2455 2452 ] final   38.91 input   30.03 | X-H torsion
[ 2515 2510 2509 2506 ] final   84.32 input  -89.99 | X-H torsion
[ 3721 3712 3711 3710 ] final  -96.82 input -179.91 | X-H torsion
[ 3841 3832 3831 3830 ] final  -37.70 input -179.91 | X-H torsion
[ 3767 3762 3761 3758 ] final  -78.28 input  -89.99 | X-H torsion
[ 2472 2467 2466 2463 ] final  -86.80 input  -89.97 | X-H torsion

> <Gold.Protein.ActiveResidues>
 VAL82   VAL86   LEU89   PHE106  VAL107  ASP110  VAL111  MET112  CYS114  THR115 
 CYS181  SER182  ILE183  PHE188  VAL189  ILE190  SER192  SER193  SER196  TRP342 
 PHE345  PHE346  HIS349  VAL350  TYR365  THR369  GLY372  TYR373 

> <Gold.Protein.RotatedAtoms>
    4.3879   -8.4839    4.2046 H   0  0  0  0  0  0  0  0  0  0  0  0  # atno 1303 bound_to 1298
    1.6469   -7.9329    7.1869 H   0  0  0  0  0  0  0  0  0  0  0  0  # atno 2461 bound_to 2456
   -4.0010   -5.3295    9.2697 H   0  0  0  0  0  0  0  0  0  0  0  0  # atno 2472 bound_to 2467
    2.0563   -7.6672    5.7761 H   0  0  0  0  0  0  0  0  0  0  0  0  # atno 2515 bound_to 2510
   -3.0736  -16.8713   14.6381 H   0  0  0  0  0  0  0  0  0  0  0  0  # atno 3721 bound_to 3712
   -5.3389  -21.9534   11.0606 H   0  0  0  0  0  0  0  0  0  0  0  0  # atno 3767 bound_to 3762
    1.5614  -20.0416    9.2685 H   0  0  0  0  0  0  0  0  0  0  0  0  # atno 3841 bound_to 3832
    4.6320   -9.9249    4.9328 LP  0  0  0  0  0  0  0  0  0  0  0  0  # atno 4297 bound_to 1298
    3.3422   -9.7128    3.9542 LP  0  0  0  0  0  0  0  0  0  0  0  0  # atno 4298 bound_to 1298
    0.3329   -8.8089    7.6033 LP  0  0  0  0  0  0  0  0  0  0  0  0  # atno 4299 bound_to 2456
    1.7581   -9.0661    8.3577 LP  0  0  0  0  0  0  0  0  0  0  0  0  # atno 4300 bound_to 2456
    2.7472   -8.1106    4.3647 LP  0  0  0  0  0  0  0  0  0  0  0  0  # atno 4301 bound_to 2510
    2.4934   -9.2217    5.5342 LP  0  0  0  0  0  0  0  0  0  0  0  0  # atno 4302 bound_to 2510
   -3.3668  -17.0300   13.0675 LP  0  0  0  0  0  0  0  0  0  0  0  0  # atno 4306 bound_to 3712
   -2.6124  -18.2181   13.8956 LP  0  0  0  0  0  0  0  0  0  0  0  0  # atno 4307 bound_to 3712
    2.6955  -19.9137    8.1400 LP  0  0  0  0  0  0  0  0  0  0  0  0  # atno 4314 bound_to 3832
    2.7301  -21.1406    9.2171 LP  0  0  0  0  0  0  0  0  0  0  0  0  # atno 4315 bound_to 3832
   -3.9643  -22.7588   11.4193 LP  0  0  0  0  0  0  0  0  0  0  0  0  # atno 4318 bound_to 3762
   -4.8244  -23.1627   10.0912 LP  0  0  0  0  0  0  0  0  0  0  0  0  # atno 4319 bound_to 3762
   -5.5020   -5.2634    8.6301 LP  0  0  0  0  0  0  0  0  0  0  0  0  # atno 4320 bound_to 2467
   -4.2138   -4.8007    7.7395 LP  0  0  0  0  0  0  0  0  0  0  0  0  # atno 4321 bound_to 2467

> <Gold.Score>
     Score     S(PLP)   S(hbond)     S(cho)   S(metal)  DE(clash)   DE(tors)     intcor
     41.78     -34.62       2.78       0.00       0.00       1.05       0.06       0.00

> <Gold.PLP.Fitness>
41.7832

> <Gold.PLP.PLP>
-34.6185

> <Gold.PLP.part.hbond>
-3.0000

> <Gold.PLP.part.metal>
0.0000

> <Gold.PLP.part.buried>
-0.0560

> <Gold.PLP.part.nonpolar>
-34.0309

> <Gold.PLP.part.repulsive>
0.0818

> <Gold.PLP.ligand.clash>
1.0500

> <Gold.PLP.ligand.torsion>
0.0572

> <Gold.PLP.Chemscore.Hbond>
2.7763

> <Gold.PLP.Chemscore.CHOScore>
0.0000

> <Gold.PLP.Chemscore.Metal>
0.0000

> <Gold.Chemscore.Hbonds>
donor molecule, donor type, donor heavy atom, donor atom, acceptor molecule, acceptor atom, score
      L1  H     7    22       P1  1227  0.84
      L1  H     7    23       P1  1223  0.94
      L1  H    11    24       P1  2456  1.00

> <Gold.PLP.Chemscore.Internal.Correction>
0.0001

