#       Name:                plp ligand
#       Creating user name   fsindt
#       Creation time:       Tue Feb 28 13:45:03 2023


#       File generated by GOLD software.
#

@<TRIPOS>MOLECULE
plp ligand
    24    24     1
SMALL
USER_CHARGES


@<TRIPOS>ATOM
      1 C1           2.0084   0.8572  -1.2162 NONPOLAR       1 <1>                0.0000
      2 C2           1.6853   0.0486   0.0419 NONPOLAR       1 <1>                0.0000
      3 C3           2.0016   0.8868   1.2821 NONPOLAR       1 <1>                0.0000
      4 C4           0.2233  -0.3172   0.0422 NONPOLAR       1 <1>                0.0000
      5 C5          -0.7365   0.6755   0.0279 NONPOLAR       1 <1>                0.0000
      6 C6          -2.0837   0.3382   0.0278 NONPOLAR       1 <1>                0.0000
      7 N7          -3.0571   1.3434   0.0128 DONOR          1 <1>                0.0000
      8 C8          -2.4643  -0.9970   0.0421 NONPOLAR       1 <1>                0.0000
      9 C9          -1.5028  -1.9886   0.0564 NONPOLAR       1 <1>                0.0000
     10 C10         -0.1577  -1.6510   0.0512 NONPOLAR       1 <1>                0.0000
     11 O11          0.7883  -2.6280   0.0649 DONACC         1 <1>                0.0000
     12 H12          3.0658   1.1218  -1.2164                1 <1>                0.0000
     13 H13          1.7830   0.2601  -2.0998                1 <1>                0.0000
     14 H14          1.4065   1.7659  -1.2286                1 <1>                0.0000
     15 H15          2.2872  -0.8601   0.0542                1 <1>                0.0000
     16 H16          1.3997   1.7955   1.2697                1 <1>                0.0000
     17 H17          1.7714   0.3107   2.1784                1 <1>                0.0000
     18 H18          3.0590   1.1513   1.2819                1 <1>                0.0000
     19 H19         -0.4396   1.7138   0.0171                1 <1>                0.0000
     20 H20         -3.5117  -1.2602   0.0424                1 <1>                0.0000
     21 H21         -1.7986  -3.0273   0.0679                1 <1>                0.0000
     22 H22         -2.7910   2.2761   0.0024                1 <1>                0.0000
     23 H23         -3.9980   1.1075   0.0127                1 <1>                0.0000
     24 H24          1.0616  -2.9231  -0.8144                1 <1>                0.0000
@<TRIPOS>BOND
    1    1    2 1     
    2    1   12 1     
    3    1   13 1     
    4    1   14 1     
    5    2    3 1     
    6    2    4 1     
    7    2   15 1     
    8    3   16 1     
    9    3   17 1     
   10    3   18 1     
   11    4    5 ar    
   12    4   10 ar    
   13    5    6 ar    
   14    5   19 1     
   15    6    7 1     
   16    6    8 ar    
   17    7   22 1     
   18    7   23 1     
   19    8    9 ar    
   20    8   20 1     
   21    9   10 ar    
   22    9   21 1     
   23   10   11 1     
   24   11   24 1     
@<TRIPOS>SUBSTRUCTURE
      1 ****           1
@<TRIPOS>SET
DONOR_HYDROGENS      STATIC     ATOMS    <user>   **** ""
3 22 23 24
ATOM$RED        STATIC     ATOMS    COLORGROUP SYSTEM
3 22 23 24
