#       Name:                EN300-15275_i001
#       Creating user name   aseyller
#       Creation time:       Fri Apr 21 16:58:19 2023


#       File generated by GOLD software.
#

@<TRIPOS>MOLECULE
EN300-15275_i001|benzaldehydes|mol2|135|dock2
    22    22     1
SMALL
USER_CHARGES


@<TRIPOS>ATOM
      1 N1          33.3142  36.2480  37.2435 N.am           1 <1>                0.0000
      2 C2          32.2621  35.4746  37.5774 C.2            1 <1>                0.0000
      3 O3          32.3787  34.2675  37.5968 O.2            1 <1>                0.0000
      4 C4          30.9408  36.1096  37.9265 C.3            1 <1>                0.0000
      5 O5          30.4729  35.5830  39.1699 O.3            1 <1>                0.0000
      6 C6          29.2536  35.9989  39.5950 C.ar           1 <1>                0.0000
      7 C7          28.9723  36.0428  40.9564 C.ar           1 <1>                0.0000
      8 C8          27.7413  36.4619  41.3912 C.ar           1 <1>                0.0000
      9 C9          26.7668  36.8465  40.4621 C.ar           1 <1>                0.0000
     10 C10         25.4468  37.2966  40.9223 C.2            1 <1>                0.0000
     11 O11         24.8890  36.7136  41.8280 O.2            1 <1>                0.0000
     12 C12         27.0553  36.8008  39.0925 C.ar           1 <1>                0.0000
     13 C13         28.2912  36.3851  38.6683 C.ar           1 <1>                0.0000
     14 H14         31.0680  37.1887  38.0138 H              1 <1>                0.0000
     15 H15         30.2147  35.8916  37.1433 H              1 <1>                0.0000
     16 H16         29.7246  35.7461  41.6721 H              1 <1>                0.0000
     17 H17         27.5236  36.4950  42.4486 H              1 <1>                0.0000
     18 H18         24.9728  38.1468  40.4545 H              1 <1>                0.0000
     19 H19         26.3071  37.0963  38.3718 H              1 <1>                0.0000
     20 H20         28.5148  36.3495  37.6122 H              1 <1>                0.0000
     21 H21         34.1636  35.8390  37.0150 H              1 <1>                0.0000
     22 H22         33.2209  37.2133  37.2279 H              1 <1>                0.0000
@<TRIPOS>BOND
    1    1    2 am    
    2    1   21 1     
    3    1   22 1     
    4    2    3 2     
    5    2    4 1     
    6    4    5 1     
    7    4   14 1     
    8    4   15 1     
    9    5    6 1     
   10    6    7 ar    
   11    6   13 ar    
   12    7    8 ar    
   13    7   16 1     
   14    8    9 ar    
   15    8   17 1     
   16    9   10 1     
   17    9   12 ar    
   18   10   11 2     
   19   10   18 1     
   20   12   13 ar    
   21   12   19 1     
   22   13   20 1     
@<TRIPOS>SUBSTRUCTURE
      1 ****           1
@<TRIPOS>SET
DONOR_HYDROGENS      STATIC     ATOMS    <user>   **** ""
2 21 22
ATOM$RED        STATIC     ATOMS    COLORGROUP SYSTEM
2 21 22
@<TRIPOS>COMMENT
> <Gold.Version>
2022.2.0

> <Gold.Id.Protein>
1qkm|1qkm_protein|mol2

> <Gold.Protein.RotatedTorsions>
[  496  491  490  487 ] final -125.82 input  -89.99 | X-H torsion

> <Gold.Protein.ActiveResidues>
 MET295  LEU298  THR299  LEU301  ALA302  GLU305  TRP335  MET336  LEU339  MET340 
 GLY342  LEU343  ARG346  PHE356  ILE373  ILE376  PHE377  LEU380  LYS471  GLY472 
 MET473  HIS475  LEU476  LEU477  ASN478  MET479  VAL484  VAL487 

> <Gold.Protein.RotatedAtoms>
   37.0729   34.2790   40.7681 H   0  0  0  0  0  0  0  0  0  0  0  0  # atno 496  bound_to 491 

> <Gold.Score>
     Score     S(PLP)   S(hbond)     S(cho)   S(metal)  DE(clash)   DE(tors)     intcor
     42.67     -41.76       0.59       0.00       0.00       0.00       0.79       0.71

> <Gold.PLP.Fitness>
42.6710

> <Gold.PLP.PLP>
-41.7578

> <Gold.PLP.part.hbond>
-1.0000

> <Gold.PLP.part.metal>
0.0000

> <Gold.PLP.part.buried>
-5.3210

> <Gold.PLP.part.nonpolar>
-36.9707

> <Gold.PLP.part.repulsive>
0.4448

> <Gold.PLP.ligand.clash>
0.0000

> <Gold.PLP.ligand.torsion>
0.7883

> <Gold.PLP.Chemscore.Hbond>
0.5920

> <Gold.PLP.Chemscore.CHOScore>
0.0000

> <Gold.PLP.Chemscore.Metal>
0.0000

> <Gold.Chemscore.Hbonds>
donor molecule, donor type, donor heavy atom, donor atom, acceptor molecule, acceptor atom, score
      P1  H  1258  1270       L1    11  0.59

> <Gold.PLP.Chemscore.Internal.Correction>
0.7138

