#       Name:                EN300-15275_i001
#       Creating user name   aseyller
#       Creation time:       Fri Apr 21 16:58:28 2023


#       File generated by GOLD software.
#

@<TRIPOS>MOLECULE
EN300-15275_i001|benzaldehydes|mol2|135|dock13
    22    22     1
SMALL
USER_CHARGES


@<TRIPOS>ATOM
      1 N1          24.8986  35.9504  41.5500 N.am           1 <1>                0.0000
      2 C2          25.8639  36.6731  40.9479 C.2            1 <1>                0.0000
      3 O3          25.6149  37.2933  39.9357 O.2            1 <1>                0.0000
      4 C4          27.2525  36.7106  41.5322 C.3            1 <1>                0.0000
      5 O5          28.0718  35.7409  40.8762 O.3            1 <1>                0.0000
      6 C6          28.7226  36.1415  39.7553 C.ar           1 <1>                0.0000
      7 C7          28.1851  37.1528  38.9661 C.ar           1 <1>                0.0000
      8 C8          28.8386  37.5611  37.8320 C.ar           1 <1>                0.0000
      9 C9          30.0494  36.9583  37.4691 C.ar           1 <1>                0.0000
     10 C10         30.7538  37.3921  36.2556 C.2            1 <1>                0.0000
     11 O11         30.2936  38.2827  35.5728 O.2            1 <1>                0.0000
     12 C12         30.5864  35.9408  38.2674 C.ar           1 <1>                0.0000
     13 C13         29.9275  35.5435  39.4025 C.ar           1 <1>                0.0000
     14 H14         27.6798  37.7033  41.3901 H              1 <1>                0.0000
     15 H15         27.2045  36.4849  42.5976 H              1 <1>                0.0000
     16 H16         27.2514  37.6171  39.2470 H              1 <1>                0.0000
     17 H17         28.4201  38.3460  37.2194 H              1 <1>                0.0000
     18 H18         31.6816  36.9181  35.9713 H              1 <1>                0.0000
     19 H19         31.5199  35.4727  37.9919 H              1 <1>                0.0000
     20 H20         30.3409  34.7588  40.0189 H              1 <1>                0.0000
     21 H21         24.0058  35.9232  41.1716 H              1 <1>                0.0000
     22 H22         25.0978  35.4544  42.3594 H              1 <1>                0.0000
@<TRIPOS>BOND
    1    1    2 am    
    2    1   21 1     
    3    1   22 1     
    4    2    3 2     
    5    2    4 1     
    6    4    5 1     
    7    4   14 1     
    8    4   15 1     
    9    5    6 1     
   10    6    7 ar    
   11    6   13 ar    
   12    7    8 ar    
   13    7   16 1     
   14    8    9 ar    
   15    8   17 1     
   16    9   10 1     
   17    9   12 ar    
   18   10   11 2     
   19   10   18 1     
   20   12   13 ar    
   21   12   19 1     
   22   13   20 1     
@<TRIPOS>SUBSTRUCTURE
      1 ****           1
@<TRIPOS>SET
DONOR_HYDROGENS      STATIC     ATOMS    <user>   **** ""
2 21 22
ATOM$RED        STATIC     ATOMS    COLORGROUP SYSTEM
2 21 22
@<TRIPOS>COMMENT
> <Gold.Version>
2022.2.0

> <Gold.Id.Protein>
1qkm|1qkm_protein|mol2

> <Gold.Protein.RotatedTorsions>
[  496  491  490  487 ] final  -81.84 input  -89.99 | X-H torsion

> <Gold.Protein.ActiveResidues>
 MET295  LEU298  THR299  LEU301  ALA302  GLU305  TRP335  MET336  LEU339  MET340 
 GLY342  LEU343  ARG346  PHE356  ILE373  ILE376  PHE377  LEU380  LYS471  GLY472 
 MET473  HIS475  LEU476  LEU477  ASN478  MET479  VAL484  VAL487 

> <Gold.Protein.RotatedAtoms>
   36.6826   34.6984   41.1811 H   0  0  0  0  0  0  0  0  0  0  0  0  # atno 496  bound_to 491 

> <Gold.Score>
     Score     S(PLP)   S(hbond)     S(cho)   S(metal)  DE(clash)   DE(tors)     intcor
     41.01     -36.08       2.00       0.00       0.00       0.00       0.88       0.69

> <Gold.PLP.Fitness>
41.0063

> <Gold.PLP.PLP>
-36.0824

> <Gold.PLP.part.hbond>
-2.0000

> <Gold.PLP.part.metal>
0.0000

> <Gold.PLP.part.buried>
-5.5769

> <Gold.PLP.part.nonpolar>
-29.6847

> <Gold.PLP.part.repulsive>
0.3811

> <Gold.PLP.ligand.clash>
0.0000

> <Gold.PLP.ligand.torsion>
0.8842

> <Gold.PLP.Chemscore.Hbond>
2.0000

> <Gold.PLP.Chemscore.CHOScore>
0.0000

> <Gold.PLP.Chemscore.Metal>
0.0000

> <Gold.Chemscore.Hbonds>
donor molecule, donor type, donor heavy atom, donor atom, acceptor molecule, acceptor atom, score
      L1  H     1    21       P1  1131  1.00
      L1  H     1    22       P1   582  1.00

> <Gold.PLP.Chemscore.Internal.Correction>
0.6924

