#       Name:                EN300-15275_i001
#       Creating user name   aseyller
#       Creation time:       Fri Apr 21 16:58:30 2023


#       File generated by GOLD software.
#

@<TRIPOS>MOLECULE
EN300-15275_i001|benzaldehydes|mol2|135|dock15
    22    22     1
SMALL
USER_CHARGES


@<TRIPOS>ATOM
      1 N1          26.6524  35.5111  41.4893 N.am           1 <1>                0.0000
      2 C2          25.7873  36.4509  41.0591 C.2            1 <1>                0.0000
      3 O3          24.9145  36.8554  41.7977 O.2            1 <1>                0.0000
      4 C4          25.9045  36.9990  39.6602 C.3            1 <1>                0.0000
      5 O5          26.9898  36.3581  38.9867 O.3            1 <1>                0.0000
      6 C6          27.7867  37.1421  38.2182 C.ar           1 <1>                0.0000
      7 C7          27.2910  38.3312  37.6940 C.ar           1 <1>                0.0000
      8 C8          28.0921  39.1269  36.9162 C.ar           1 <1>                0.0000
      9 C9          29.4117  38.7409  36.6505 C.ar           1 <1>                0.0000
     10 C10         30.2744  39.5897  35.8185 C.2            1 <1>                0.0000
     11 O11         31.1987  39.0987  35.2054 O.2            1 <1>                0.0000
     12 C12         29.9061  37.5429  37.1811 C.ar           1 <1>                0.0000
     13 C13         29.0982  36.7569  37.9620 C.ar           1 <1>                0.0000
     14 H14         24.9781  36.8107  39.1174 H              1 <1>                0.0000
     15 H15         26.0877  38.0726  39.7048 H              1 <1>                0.0000
     16 H16         26.2732  38.6280  37.8997 H              1 <1>                0.0000
     17 H17         27.7060  40.0497  36.5090 H              1 <1>                0.0000
     18 H18         30.0858  40.6510  35.7525 H              1 <1>                0.0000
     19 H19         30.9231  37.2407  36.9790 H              1 <1>                0.0000
     20 H20         29.4786  35.8328  38.3717 H              1 <1>                0.0000
     21 H21         26.5745  35.1556  42.3885 H              1 <1>                0.0000
     22 H22         27.3503  35.1876  40.8985 H              1 <1>                0.0000
@<TRIPOS>BOND
    1    1    2 am    
    2    1   21 1     
    3    1   22 1     
    4    2    3 2     
    5    2    4 1     
    6    4    5 1     
    7    4   14 1     
    8    4   15 1     
    9    5    6 1     
   10    6    7 ar    
   11    6   13 ar    
   12    7    8 ar    
   13    7   16 1     
   14    8    9 ar    
   15    8   17 1     
   16    9   10 1     
   17    9   12 ar    
   18   10   11 2     
   19   10   18 1     
   20   12   13 ar    
   21   12   19 1     
   22   13   20 1     
@<TRIPOS>SUBSTRUCTURE
      1 ****           1
@<TRIPOS>SET
DONOR_HYDROGENS      STATIC     ATOMS    <user>   **** ""
2 21 22
ATOM$RED        STATIC     ATOMS    COLORGROUP SYSTEM
2 21 22
@<TRIPOS>COMMENT
> <Gold.Version>
2022.2.0

> <Gold.Id.Protein>
1qkm|1qkm_protein|mol2

> <Gold.Protein.RotatedTorsions>
[  496  491  490  487 ] final  -15.77 input  -89.99 | X-H torsion

> <Gold.Protein.ActiveResidues>
 MET295  LEU298  THR299  LEU301  ALA302  GLU305  TRP335  MET336  LEU339  MET340 
 GLY342  LEU343  ARG346  PHE356  ILE373  ILE376  PHE377  LEU380  LYS471  GLY472 
 MET473  HIS475  LEU476  LEU477  ASN478  MET479  VAL484  VAL487 

> <Gold.Protein.RotatedAtoms>
   36.2711   34.4211   42.0819 H   0  0  0  0  0  0  0  0  0  0  0  0  # atno 496  bound_to 491 

> <Gold.Score>
     Score     S(PLP)   S(hbond)     S(cho)   S(metal)  DE(clash)   DE(tors)     intcor
     43.74     -40.07       1.51       0.00       0.00       0.00       0.78       0.69

> <Gold.PLP.Fitness>
43.7375

> <Gold.PLP.PLP>
-40.0709

> <Gold.PLP.part.hbond>
-2.0000

> <Gold.PLP.part.metal>
0.0000

> <Gold.PLP.part.buried>
-5.3005

> <Gold.PLP.part.nonpolar>
-34.0150

> <Gold.PLP.part.repulsive>
0.3492

> <Gold.PLP.ligand.clash>
0.0000

> <Gold.PLP.ligand.torsion>
0.7809

> <Gold.PLP.Chemscore.Hbond>
1.5120

> <Gold.PLP.Chemscore.CHOScore>
0.0000

> <Gold.PLP.Chemscore.Metal>
0.0000

> <Gold.Chemscore.Hbonds>
donor molecule, donor type, donor heavy atom, donor atom, acceptor molecule, acceptor atom, score
      L1  H     1    21       P1   582  1.00
      P1  H  1258  1270       L1     3  0.51

> <Gold.PLP.Chemscore.Internal.Correction>
0.6924

