#       Name:                EN300-15275_i001
#       Creating user name   aseyller
#       Creation time:       Fri Apr 21 16:58:21 2023


#       File generated by GOLD software.
#

@<TRIPOS>MOLECULE
EN300-15275_i001|benzaldehydes|mol2|135|dock4
    22    22     1
SMALL
USER_CHARGES


@<TRIPOS>ATOM
      1 N1          25.3140  36.0888  41.7882 N.am           1 <1>                0.0000
      2 C2          26.0345  36.6200  40.7806 C.2            1 <1>                0.0000
      3 O3          25.4960  37.3324  39.9598 O.2            1 <1>                0.0000
      4 C4          27.5092  36.3287  40.6736 C.3            1 <1>                0.0000
      5 O5          28.0446  36.9954  39.5287 O.3            1 <1>                0.0000
      6 C6          29.2330  36.5453  39.0537 C.ar           1 <1>                0.0000
      7 C7          30.0615  37.4015  38.3360 C.ar           1 <1>                0.0000
      8 C8          31.2634  36.9515  37.8534 C.ar           1 <1>                0.0000
      9 C9          31.6564  35.6275  38.0846 C.ar           1 <1>                0.0000
     10 C10         32.9429  35.1403  37.5704 C.2            1 <1>                0.0000
     11 O11         33.5720  35.8095  36.7781 O.2            1 <1>                0.0000
     12 C12         30.8188  34.7696  38.8082 C.ar           1 <1>                0.0000
     13 C13         29.6212  35.2312  39.2910 C.ar           1 <1>                0.0000
     14 H14         28.0158  36.6841  41.5709 H              1 <1>                0.0000
     15 H15         27.6609  35.2541  40.5722 H              1 <1>                0.0000
     16 H16         29.7574  38.4224  38.1583 H              1 <1>                0.0000
     17 H17         31.9056  37.6169  37.2956 H              1 <1>                0.0000
     18 H18         33.3289  34.1863  37.8976 H              1 <1>                0.0000
     19 H19         31.1174  33.7476  38.9892 H              1 <1>                0.0000
     20 H20         28.9745  34.5704  39.8492 H              1 <1>                0.0000
     21 H21         24.3640  36.2732  41.8548 H              1 <1>                0.0000
     22 H22         25.7447  35.5191  42.4445 H              1 <1>                0.0000
@<TRIPOS>BOND
    1    1    2 am    
    2    1   21 1     
    3    1   22 1     
    4    2    3 2     
    5    2    4 1     
    6    4    5 1     
    7    4   14 1     
    8    4   15 1     
    9    5    6 1     
   10    6    7 ar    
   11    6   13 ar    
   12    7    8 ar    
   13    7   16 1     
   14    8    9 ar    
   15    8   17 1     
   16    9   10 1     
   17    9   12 ar    
   18   10   11 2     
   19   10   18 1     
   20   12   13 ar    
   21   12   19 1     
   22   13   20 1     
@<TRIPOS>SUBSTRUCTURE
      1 ****           1
@<TRIPOS>SET
DONOR_HYDROGENS      STATIC     ATOMS    <user>   **** ""
2 21 22
ATOM$RED        STATIC     ATOMS    COLORGROUP SYSTEM
2 21 22
@<TRIPOS>COMMENT
> <Gold.Version>
2022.2.0

> <Gold.Id.Protein>
1qkm|1qkm_protein|mol2

> <Gold.Protein.RotatedTorsions>
[  496  491  490  487 ] final -158.85 input  -89.99 | X-H torsion

> <Gold.Protein.ActiveResidues>
 MET295  LEU298  THR299  LEU301  ALA302  GLU305  TRP335  MET336  LEU339  MET340 
 GLY342  LEU343  ARG346  PHE356  ILE373  ILE376  PHE377  LEU380  LYS471  GLY472 
 MET473  HIS475  LEU476  LEU477  ASN478  MET479  VAL484  VAL487 

> <Gold.Protein.RotatedAtoms>
   37.2709   33.7812   40.7430 H   0  0  0  0  0  0  0  0  0  0  0  0  # atno 496  bound_to 491 

> <Gold.Score>
     Score     S(PLP)   S(hbond)     S(cho)   S(metal)  DE(clash)   DE(tors)     intcor
     41.75     -38.99       1.00       0.00       0.00       0.00       0.47       0.69

> <Gold.PLP.Fitness>
41.7458

> <Gold.PLP.PLP>
-38.9867

> <Gold.PLP.part.hbond>
-1.0000

> <Gold.PLP.part.metal>
0.0000

> <Gold.PLP.part.buried>
-4.9637

> <Gold.PLP.part.nonpolar>
-33.1621

> <Gold.PLP.part.repulsive>
0.2137

> <Gold.PLP.ligand.clash>
0.0000

> <Gold.PLP.ligand.torsion>
0.4666

> <Gold.PLP.Chemscore.Hbond>
1.0000

> <Gold.PLP.Chemscore.CHOScore>
0.0000

> <Gold.PLP.Chemscore.Metal>
0.0000

> <Gold.Chemscore.Hbonds>
donor molecule, donor type, donor heavy atom, donor atom, acceptor molecule, acceptor atom, score
      L1  H     1    22       P1   582  1.00

> <Gold.PLP.Chemscore.Internal.Correction>
0.6924

