#       Name:                EN300-15275_i001
#       Creating user name   aseyller
#       Creation time:       Fri Apr 21 16:58:18 2023


#       File generated by GOLD software.
#

@<TRIPOS>MOLECULE
EN300-15275_i001
    22    22     1
SMALL
USER_CHARGES


@<TRIPOS>ATOM
      1 N1           4.4569   1.0545  -0.0007 N.am           1 <1>                0.0000
      2 C2           3.5227   0.0830  -0.0003 C.2            1 <1>                0.0000
      3 O3           3.8595  -1.0822   0.0001 O.2            1 <1>                0.0000
      4 C4           2.0596   0.4444  -0.0004 C.3            1 <1>                0.0000
      5 O5           1.2740  -0.7493   0.0000 O.3            1 <1>                0.0000
      6 C6          -0.0743  -0.5992   0.0000 C.ar           1 <1>                0.0000
      7 C7          -0.8964  -1.7211   0.0004 C.ar           1 <1>                0.0000
      8 C8          -2.2596  -1.5749  -0.0001 C.ar           1 <1>                0.0000
      9 C9          -2.8239  -0.2933  -0.0005 C.ar           1 <1>                0.0000
     10 C10         -4.2835  -0.1309  -0.0005 C.2            1 <1>                0.0000
     11 O11         -4.7702   0.9802  -0.0009 O.2            1 <1>                0.0000
     12 C12         -1.9918   0.8330  -0.0004 C.ar           1 <1>                0.0000
     13 C13         -0.6296   0.6758   0.0053 C.ar           1 <1>                0.0000
     14 H14          1.8301   1.0307   0.8894 H              1 <1>                0.0000
     15 H15          1.8301   1.0301  -0.8906 H              1 <1>                0.0000
     16 H16         -0.4601  -2.7090   0.0008 H              1 <1>                0.0000
     17 H17         -2.8971  -2.4467  -0.0005 H              1 <1>                0.0000
     18 H18         -4.9236  -1.0007  -0.0002 H              1 <1>                0.0000
     19 H19         -2.4221   1.8236  -0.0008 H              1 <1>                0.0000
     20 H20          0.0131   1.5438   0.0054 H              1 <1>                0.0000
     21 H21          5.3985   0.8218  -0.0045 H              1 <1>                0.0000
     22 H22          4.1874   1.9863  -0.0010 H              1 <1>                0.0000
@<TRIPOS>BOND
    1    1    2 am    
    2    1   21 1     
    3    1   22 1     
    4    2    3 2     
    5    2    4 1     
    6    4    5 1     
    7    4   14 1     
    8    4   15 1     
    9    5    6 1     
   10    6    7 ar    
   11    6   13 ar    
   12    7    8 ar    
   13    7   16 1     
   14    8    9 ar    
   15    8   17 1     
   16    9   10 1     
   17    9   12 ar    
   18   10   11 2     
   19   10   18 1     
   20   12   13 ar    
   21   12   19 1     
   22   13   20 1     
@<TRIPOS>SUBSTRUCTURE
      1 ****           1
@<TRIPOS>SET
DONOR_HYDROGENS      STATIC     ATOMS    <user>   **** ""
2 21 22
ATOM$RED        STATIC     ATOMS    COLORGROUP SYSTEM
2 21 22
