#       Name:                EN300-15275_i001
#       Creating user name   aseyller
#       Creation time:       Fri Apr 21 16:58:27 2023


#       File generated by GOLD software.
#

@<TRIPOS>MOLECULE
EN300-15275_i001|benzaldehydes|mol2|135|dock11
    22    22     1
SMALL
USER_CHARGES


@<TRIPOS>ATOM
      1 N1          34.0441  36.9970  34.3177 N.am           1 <1>                0.0000
      2 C2          32.7736  37.2315  34.7017 C.2            1 <1>                0.0000
      3 O3          32.0955  38.0344  34.0963 O.2            1 <1>                0.0000
      4 C4          32.1956  36.4961  35.8833 C.3            1 <1>                0.0000
      5 O5          31.7587  37.4390  36.8641 O.3            1 <1>                0.0000
      6 C6          30.9685  36.9687  37.8615 C.ar           1 <1>                0.0000
      7 C7          31.0826  35.6441  38.2698 C.ar           1 <1>                0.0000
      8 C8          30.2860  35.1636  39.2770 C.ar           1 <1>                0.0000
      9 C9          29.3567  36.0093  39.8952 C.ar           1 <1>                0.0000
     10 C10         28.5013  35.5001  40.9750 C.2            1 <1>                0.0000
     11 O11         27.6466  36.2121  41.4586 O.2            1 <1>                0.0000
     12 C12         29.2461  37.3424  39.4807 C.ar           1 <1>                0.0000
     13 C13         30.0511  37.8143  38.4759 C.ar           1 <1>                0.0000
     14 H14         31.3487  35.8926  35.5568 H              1 <1>                0.0000
     15 H15         32.9579  35.8483  36.3163 H              1 <1>                0.0000
     16 H16         31.7998  34.9928  37.7924 H              1 <1>                0.0000
     17 H17         30.3750  34.1347  39.5929 H              1 <1>                0.0000
     18 H18         28.6332  34.4917  41.3383 H              1 <1>                0.0000
     19 H19         28.5308  37.9986  39.9542 H              1 <1>                0.0000
     20 H20         29.9666  38.8422  38.1555 H              1 <1>                0.0000
     21 H21         34.4173  37.4733  33.5595 H              1 <1>                0.0000
     22 H22         34.5864  36.3549  34.8019 H              1 <1>                0.0000
@<TRIPOS>BOND
    1    1    2 am    
    2    1   21 1     
    3    1   22 1     
    4    2    3 2     
    5    2    4 1     
    6    4    5 1     
    7    4   14 1     
    8    4   15 1     
    9    5    6 1     
   10    6    7 ar    
   11    6   13 ar    
   12    7    8 ar    
   13    7   16 1     
   14    8    9 ar    
   15    8   17 1     
   16    9   10 1     
   17    9   12 ar    
   18   10   11 2     
   19   10   18 1     
   20   12   13 ar    
   21   12   19 1     
   22   13   20 1     
@<TRIPOS>SUBSTRUCTURE
      1 ****           1
@<TRIPOS>SET
DONOR_HYDROGENS      STATIC     ATOMS    <user>   **** ""
2 21 22
ATOM$RED        STATIC     ATOMS    COLORGROUP SYSTEM
2 21 22
@<TRIPOS>COMMENT
> <Gold.Version>
2022.2.0

> <Gold.Id.Protein>
1qkm|1qkm_protein|mol2

> <Gold.Protein.RotatedTorsions>
[  496  491  490  487 ] final   49.15 input  -89.99 | X-H torsion

> <Gold.Protein.ActiveResidues>
 MET295  LEU298  THR299  LEU301  ALA302  GLU305  TRP335  MET336  LEU339  MET340 
 GLY342  LEU343  ARG346  PHE356  ILE373  ILE376  PHE377  LEU380  LYS471  GLY472 
 MET473  HIS475  LEU476  LEU477  ASN478  MET479  VAL484  VAL487 

> <Gold.Protein.RotatedAtoms>
   36.4665   33.4665   42.3567 H   0  0  0  0  0  0  0  0  0  0  0  0  # atno 496  bound_to 491 

> <Gold.Score>
     Score     S(PLP)   S(hbond)     S(cho)   S(metal)  DE(clash)   DE(tors)     intcor
     41.17     -38.33       1.00       0.00       0.00       0.00       0.42       0.69

> <Gold.PLP.Fitness>
41.1725

> <Gold.PLP.PLP>
-38.3275

> <Gold.PLP.part.hbond>
-1.0000

> <Gold.PLP.part.metal>
0.0000

> <Gold.PLP.part.buried>
-5.1882

> <Gold.PLP.part.nonpolar>
-32.9296

> <Gold.PLP.part.repulsive>
0.3832

> <Gold.PLP.ligand.clash>
0.0000

> <Gold.PLP.ligand.torsion>
0.4237

> <Gold.PLP.Chemscore.Hbond>
1.0000

> <Gold.PLP.Chemscore.CHOScore>
0.0000

> <Gold.PLP.Chemscore.Metal>
0.0000

> <Gold.Chemscore.Hbonds>
donor molecule, donor type, donor heavy atom, donor atom, acceptor molecule, acceptor atom, score
      L1  H     1    21       P1  3229  1.00

> <Gold.PLP.Chemscore.Internal.Correction>
0.6924

