#       Name:                EN300-15275_i001
#       Creating user name   aseyller
#       Creation time:       Fri Apr 21 16:58:20 2023


#       File generated by GOLD software.
#

@<TRIPOS>MOLECULE
EN300-15275_i001|benzaldehydes|mol2|135|dock3
    22    22     1
SMALL
USER_CHARGES


@<TRIPOS>ATOM
      1 N1          32.9896  38.1729  34.3005 N.am           1 <1>                0.0000
      2 C2          32.4622  37.2076  35.0793 C.2            1 <1>                0.0000
      3 O3          33.0873  36.1901  35.2911 O.2            1 <1>                0.0000
      4 C4          31.0956  37.3926  35.6871 C.3            1 <1>                0.0000
      5 O5          31.1936  37.3199  37.1109 O.3            1 <1>                0.0000
      6 C6          30.0367  37.1567  37.8003 C.ar           1 <1>                0.0000
      7 C7          28.8359  37.5957  37.2527 C.ar           1 <1>                0.0000
      8 C8          27.6639  37.4336  37.9455 C.ar           1 <1>                0.0000
      9 C9          27.6772  36.8243  39.2063 C.ar           1 <1>                0.0000
     10 C10         26.4247  36.6476  39.9525 C.2            1 <1>                0.0000
     11 O11         25.4445  37.2970  39.6546 O.2            1 <1>                0.0000
     12 C12         28.8888  36.3835  39.7529 C.ar           1 <1>                0.0000
     13 C13         30.0547  36.5458  39.0495 C.ar           1 <1>                0.0000
     14 H14         30.6988  38.3662  35.3994 H              1 <1>                0.0000
     15 H15         30.4292  36.6082  35.3282 H              1 <1>                0.0000
     16 H16         28.8268  38.0654  36.2803 H              1 <1>                0.0000
     17 H17         26.7321  37.7755  37.5198 H              1 <1>                0.0000
     18 H18         26.3764  35.9396  40.7665 H              1 <1>                0.0000
     19 H19         28.9045  35.9131  40.7250 H              1 <1>                0.0000
     20 H20         30.9897  36.2062  39.4702 H              1 <1>                0.0000
     21 H21         33.8676  38.0521  33.9062 H              1 <1>                0.0000
     22 H22         32.4896  38.9866  34.1312 H              1 <1>                0.0000
@<TRIPOS>BOND
    1    1    2 am    
    2    1   21 1     
    3    1   22 1     
    4    2    3 2     
    5    2    4 1     
    6    4    5 1     
    7    4   14 1     
    8    4   15 1     
    9    5    6 1     
   10    6    7 ar    
   11    6   13 ar    
   12    7    8 ar    
   13    7   16 1     
   14    8    9 ar    
   15    8   17 1     
   16    9   10 1     
   17    9   12 ar    
   18   10   11 2     
   19   10   18 1     
   20   12   13 ar    
   21   12   19 1     
   22   13   20 1     
@<TRIPOS>SUBSTRUCTURE
      1 ****           1
@<TRIPOS>SET
DONOR_HYDROGENS      STATIC     ATOMS    <user>   **** ""
2 21 22
ATOM$RED        STATIC     ATOMS    COLORGROUP SYSTEM
2 21 22
@<TRIPOS>COMMENT
> <Gold.Version>
2022.2.0

> <Gold.Id.Protein>
1qkm|1qkm_protein|mol2

> <Gold.Protein.RotatedTorsions>
[  496  491  490  487 ] final  -48.45 input  -89.99 | X-H torsion

> <Gold.Protein.ActiveResidues>
 MET295  LEU298  THR299  LEU301  ALA302  GLU305  TRP335  MET336  LEU339  MET340 
 GLY342  LEU343  ARG346  PHE356  ILE373  ILE376  PHE377  LEU380  LYS471  GLY472 
 MET473  HIS475  LEU476  LEU477  ASN478  MET479  VAL484  VAL487 

> <Gold.Protein.RotatedAtoms>
   36.4143   34.6974   41.6520 H   0  0  0  0  0  0  0  0  0  0  0  0  # atno 496  bound_to 491 

> <Gold.Score>
     Score     S(PLP)   S(hbond)     S(cho)   S(metal)  DE(clash)   DE(tors)     intcor
     40.56     -37.84       1.00       0.00       0.00       0.00       0.49       0.69

> <Gold.PLP.Fitness>
40.5607

> <Gold.PLP.PLP>
-37.8422

> <Gold.PLP.part.hbond>
-1.0000

> <Gold.PLP.part.metal>
0.0000

> <Gold.PLP.part.buried>
-4.9996

> <Gold.PLP.part.nonpolar>
-32.1598

> <Gold.PLP.part.repulsive>
0.2595

> <Gold.PLP.ligand.clash>
0.0000

> <Gold.PLP.ligand.torsion>
0.4870

> <Gold.PLP.Chemscore.Hbond>
1.0000

> <Gold.PLP.Chemscore.CHOScore>
0.0000

> <Gold.PLP.Chemscore.Metal>
0.0000

> <Gold.Chemscore.Hbonds>
donor molecule, donor type, donor heavy atom, donor atom, acceptor molecule, acceptor atom, score
      L1  H     1    21       P1  3229  1.00

> <Gold.PLP.Chemscore.Internal.Correction>
0.6924

