#       Name:                EN300-15275_i001
#       Creating user name   aseyller
#       Creation time:       Fri Apr 21 16:58:27 2023


#       File generated by GOLD software.
#

@<TRIPOS>MOLECULE
EN300-15275_i001|benzaldehydes|mol2|135|dock12
    22    22     1
SMALL
USER_CHARGES


@<TRIPOS>ATOM
      1 N1          32.6861  35.0479  37.2750 N.am           1 <1>                0.0000
      2 C2          31.6602  35.3642  38.0898 C.2            1 <1>                0.0000
      3 O3          31.2075  34.5311  38.8462 O.2            1 <1>                0.0000
      4 C4          31.0755  36.7528  38.0610 C.3            1 <1>                0.0000
      5 O5          29.7552  36.7027  37.5166 O.3            1 <1>                0.0000
      6 C6          28.7241  36.7398  38.3974 C.ar           1 <1>                0.0000
      7 C7          28.9169  36.3168  39.7082 C.ar           1 <1>                0.0000
      8 C8          27.8779  36.3519  40.6022 C.ar           1 <1>                0.0000
      9 C9          26.6211  36.8151  40.1936 C.ar           1 <1>                0.0000
     10 C10         25.5049  36.8552  41.1471 C.2            1 <1>                0.0000
     11 O11         25.6761  37.2989  42.2630 O.2            1 <1>                0.0000
     12 C12         26.4324  37.2402  38.8727 C.ar           1 <1>                0.0000
     13 C13         27.4795  37.2060  37.9879 C.ar           1 <1>                0.0000
     14 H14         31.0356  37.1513  39.0748 H              1 <1>                0.0000
     15 H15         31.6997  37.3971  37.4418 H              1 <1>                0.0000
     16 H16         29.8866  35.9599  40.0223 H              1 <1>                0.0000
     17 H17         28.0284  36.0226  41.6197 H              1 <1>                0.0000
     18 H18         24.5316  36.4899  40.8548 H              1 <1>                0.0000
     19 H19         25.4651  37.5982  38.5526 H              1 <1>                0.0000
     20 H20         27.3350  37.5337  36.9690 H              1 <1>                0.0000
     21 H21         33.0599  34.1529  37.2907 H              1 <1>                0.0000
     22 H22         33.0481  35.7141  36.6700 H              1 <1>                0.0000
@<TRIPOS>BOND
    1    1    2 am    
    2    1   21 1     
    3    1   22 1     
    4    2    3 2     
    5    2    4 1     
    6    4    5 1     
    7    4   14 1     
    8    4   15 1     
    9    5    6 1     
   10    6    7 ar    
   11    6   13 ar    
   12    7    8 ar    
   13    7   16 1     
   14    8    9 ar    
   15    8   17 1     
   16    9   10 1     
   17    9   12 ar    
   18   10   11 2     
   19   10   18 1     
   20   12   13 ar    
   21   12   19 1     
   22   13   20 1     
@<TRIPOS>SUBSTRUCTURE
      1 ****           1
@<TRIPOS>SET
DONOR_HYDROGENS      STATIC     ATOMS    <user>   **** ""
2 21 22
ATOM$RED        STATIC     ATOMS    COLORGROUP SYSTEM
2 21 22
@<TRIPOS>COMMENT
> <Gold.Version>
2022.2.0

> <Gold.Id.Protein>
1qkm|1qkm_protein|mol2

> <Gold.Protein.RotatedTorsions>
[  496  491  490  487 ] final  -67.79 input  -89.99 | X-H torsion

> <Gold.Protein.ActiveResidues>
 MET295  LEU298  THR299  LEU301  ALA302  GLU305  TRP335  MET336  LEU339  MET340 
 GLY342  LEU343  ARG346  PHE356  ILE373  ILE376  PHE377  LEU380  LYS471  GLY472 
 MET473  HIS475  LEU476  LEU477  ASN478  MET479  VAL484  VAL487 

> <Gold.Protein.RotatedAtoms>
   36.5597   34.7349   41.3729 H   0  0  0  0  0  0  0  0  0  0  0  0  # atno 496  bound_to 491 

> <Gold.Score>
     Score     S(PLP)   S(hbond)     S(cho)   S(metal)  DE(clash)   DE(tors)     intcor
     40.91     -42.28       0.04       0.00       0.00       0.00       1.08       0.69

> <Gold.PLP.Fitness>
40.9088

> <Gold.PLP.PLP>
-42.2751

> <Gold.PLP.part.hbond>
-1.0000

> <Gold.PLP.part.metal>
0.0000

> <Gold.PLP.part.buried>
-6.0196

> <Gold.PLP.part.nonpolar>
-36.7728

> <Gold.PLP.part.repulsive>
0.3673

> <Gold.PLP.ligand.clash>
0.0000

> <Gold.PLP.ligand.torsion>
1.0841

> <Gold.PLP.Chemscore.Hbond>
0.0365

> <Gold.PLP.Chemscore.CHOScore>
0.0000

> <Gold.PLP.Chemscore.Metal>
0.0000

> <Gold.Chemscore.Hbonds>
donor molecule, donor type, donor heavy atom, donor atom, acceptor molecule, acceptor atom, score
      P1  H  1258  1270       L1    11  0.04

> <Gold.PLP.Chemscore.Internal.Correction>
0.6924

