#       Name:                EN300-15275_i001
#       Creating user name   aseyller
#       Creation time:       Fri Apr 21 16:58:32 2023


#       File generated by GOLD software.
#

@<TRIPOS>MOLECULE
EN300-15275_i001|benzaldehydes|mol2|135|dock17
    22    22     1
SMALL
USER_CHARGES


@<TRIPOS>ATOM
      1 N1          31.8159  36.4071  34.6701 N.am           1 <1>                0.0000
      2 C2          31.2222  37.4756  35.2379 C.2            1 <1>                0.0000
      3 O3          30.4217  38.1317  34.6056 O.2            1 <1>                0.0000
      4 C4          31.5529  37.8551  36.6583 C.3            1 <1>                0.0000
      5 O5          31.1110  36.8230  37.5424 O.3            1 <1>                0.0000
      6 C6          29.8413  36.9154  38.0111 C.ar           1 <1>                0.0000
      7 C7          29.5248  36.3957  39.2618 C.ar           1 <1>                0.0000
      8 C8          28.2430  36.4860  39.7400 C.ar           1 <1>                0.0000
      9 C9          27.2518  37.1033  38.9670 C.ar           1 <1>                0.0000
     10 C10         25.8773  37.2033  39.4745 C.2            1 <1>                0.0000
     11 O11         25.6236  36.8603  40.6100 O.2            1 <1>                0.0000
     12 C12         27.5758  37.6254  37.7086 C.ar           1 <1>                0.0000
     13 C13         28.8620  37.5345  37.2419 C.ar           1 <1>                0.0000
     14 H14         32.6307  37.9828  36.7587 H              1 <1>                0.0000
     15 H15         31.0512  38.7893  36.9109 H              1 <1>                0.0000
     16 H16         30.2901  35.9199  39.8571 H              1 <1>                0.0000
     17 H17         27.9981  36.0815  40.7110 H              1 <1>                0.0000
     18 H18         25.0925  37.5823  38.8368 H              1 <1>                0.0000
     19 H19         26.8150  38.1024  37.1086 H              1 <1>                0.0000
     20 H20         29.1129  37.9368  36.2715 H              1 <1>                0.0000
     21 H21         31.6059  36.1651  33.7545 H              1 <1>                0.0000
     22 H22         32.4561  35.8824  35.1758 H              1 <1>                0.0000
@<TRIPOS>BOND
    1    1    2 am    
    2    1   21 1     
    3    1   22 1     
    4    2    3 2     
    5    2    4 1     
    6    4    5 1     
    7    4   14 1     
    8    4   15 1     
    9    5    6 1     
   10    6    7 ar    
   11    6   13 ar    
   12    7    8 ar    
   13    7   16 1     
   14    8    9 ar    
   15    8   17 1     
   16    9   10 1     
   17    9   12 ar    
   18   10   11 2     
   19   10   18 1     
   20   12   13 ar    
   21   12   19 1     
   22   13   20 1     
@<TRIPOS>SUBSTRUCTURE
      1 ****           1
@<TRIPOS>SET
DONOR_HYDROGENS      STATIC     ATOMS    <user>   **** ""
2 21 22
ATOM$RED        STATIC     ATOMS    COLORGROUP SYSTEM
2 21 22
@<TRIPOS>COMMENT
> <Gold.Version>
2022.2.0

> <Gold.Id.Protein>
1qkm|1qkm_protein|mol2

> <Gold.Protein.RotatedTorsions>
[  496  491  490  487 ] final   49.44 input  -89.99 | X-H torsion

> <Gold.Protein.ActiveResidues>
 MET295  LEU298  THR299  LEU301  ALA302  GLU305  TRP335  MET336  LEU339  MET340 
 GLY342  LEU343  ARG346  PHE356  ILE373  ILE376  PHE377  LEU380  LYS471  GLY472 
 MET473  HIS475  LEU476  LEU477  ASN478  MET479  VAL484  VAL487 

> <Gold.Protein.RotatedAtoms>
   36.4687   33.4624   42.3556 H   0  0  0  0  0  0  0  0  0  0  0  0  # atno 496  bound_to 491 

> <Gold.Score>
     Score     S(PLP)   S(hbond)     S(cho)   S(metal)  DE(clash)   DE(tors)     intcor
     39.15     -36.76       0.96       0.00       0.00       0.00       0.59       0.69

> <Gold.PLP.Fitness>
39.1497

> <Gold.PLP.PLP>
-36.7579

> <Gold.PLP.part.hbond>
-1.0000

> <Gold.PLP.part.metal>
0.0000

> <Gold.PLP.part.buried>
-4.8970

> <Gold.PLP.part.nonpolar>
-32.1111

> <Gold.PLP.part.repulsive>
0.2338

> <Gold.PLP.ligand.clash>
0.0000

> <Gold.PLP.ligand.torsion>
0.5884

> <Gold.PLP.Chemscore.Hbond>
0.9588

> <Gold.PLP.Chemscore.CHOScore>
0.0000

> <Gold.PLP.Chemscore.Metal>
0.0000

> <Gold.Chemscore.Hbonds>
donor molecule, donor type, donor heavy atom, donor atom, acceptor molecule, acceptor atom, score
      L1  H     1    21       P1  3187  0.96

> <Gold.PLP.Chemscore.Internal.Correction>
0.6924

