#       Name:                EN300-15275_i001
#       Creating user name   aseyller
#       Creation time:       Fri Apr 21 16:58:22 2023


#       File generated by GOLD software.
#

@<TRIPOS>MOLECULE
EN300-15275_i001|benzaldehydes|mol2|135|dock5
    22    22     1
SMALL
USER_CHARGES


@<TRIPOS>ATOM
      1 N1          32.6918  37.4936  36.0434 N.am           1 <1>                0.0000
      2 C2          32.2176  36.9051  37.1593 C.2            1 <1>                0.0000
      3 O3          32.9406  36.1929  37.8235 O.2            1 <1>                0.0000
      4 C4          30.7889  37.1318  37.5818 C.3            1 <1>                0.0000
      5 O5          30.5300  36.4145  38.7903 O.3            1 <1>                0.0000
      6 C6          29.2788  36.5084  39.3062 C.ar           1 <1>                0.0000
      7 C7          29.0864  36.4083  40.6800 C.ar           1 <1>                0.0000
      8 C8          27.8238  36.5020  41.2065 C.ar           1 <1>                0.0000
      9 C9          26.7271  36.6995  40.3584 C.ar           1 <1>                0.0000
     10 C10         25.3727  36.8012  40.9170 C.2            1 <1>                0.0000
     11 O11         25.2194  37.0364  42.0970 O.2            1 <1>                0.0000
     12 C12         26.9264  36.8002  38.9759 C.ar           1 <1>                0.0000
     13 C13         28.1937  36.7102  38.4601 C.ar           1 <1>                0.0000
     14 H14         30.6239  38.1963  37.7486 H              1 <1>                0.0000
     15 H15         30.1180  36.7785  36.7987 H              1 <1>                0.0000
     16 H16         29.9329  36.2561  41.3331 H              1 <1>                0.0000
     17 H17         27.6754  36.4234  42.2734 H              1 <1>                0.0000
     18 H18         24.5132  36.6666  40.2771 H              1 <1>                0.0000
     19 H19         26.0838  36.9524  38.3176 H              1 <1>                0.0000
     20 H20         28.3484  36.7877  37.3940 H              1 <1>                0.0000
     21 H21         33.6103  37.3445  35.7694 H              1 <1>                0.0000
     22 H22         32.1135  38.0630  35.5122 H              1 <1>                0.0000
@<TRIPOS>BOND
    1    1    2 am    
    2    1   21 1     
    3    1   22 1     
    4    2    3 2     
    5    2    4 1     
    6    4    5 1     
    7    4   14 1     
    8    4   15 1     
    9    5    6 1     
   10    6    7 ar    
   11    6   13 ar    
   12    7    8 ar    
   13    7   16 1     
   14    8    9 ar    
   15    8   17 1     
   16    9   10 1     
   17    9   12 ar    
   18   10   11 2     
   19   10   18 1     
   20   12   13 ar    
   21   12   19 1     
   22   13   20 1     
@<TRIPOS>SUBSTRUCTURE
      1 ****           1
@<TRIPOS>SET
DONOR_HYDROGENS      STATIC     ATOMS    <user>   **** ""
2 21 22
ATOM$RED        STATIC     ATOMS    COLORGROUP SYSTEM
2 21 22
@<TRIPOS>COMMENT
> <Gold.Version>
2022.2.0

> <Gold.Id.Protein>
1qkm|1qkm_protein|mol2

> <Gold.Protein.RotatedTorsions>
[  496  491  490  487 ] final  147.43 input  -89.99 | X-H torsion

> <Gold.Protein.ActiveResidues>
 MET295  LEU298  THR299  LEU301  ALA302  GLU305  TRP335  MET336  LEU339  MET340 
 GLY342  LEU343  ARG346  PHE356  ILE373  ILE376  PHE377  LEU380  LYS471  GLY472 
 MET473  HIS475  LEU476  LEU477  ASN478  MET479  VAL484  VAL487 

> <Gold.Protein.RotatedAtoms>
   37.2516   33.0817   41.2294 H   0  0  0  0  0  0  0  0  0  0  0  0  # atno 496  bound_to 491 

> <Gold.Score>
     Score     S(PLP)   S(hbond)     S(cho)   S(metal)  DE(clash)   DE(tors)     intcor
     40.85     -40.13       0.30       0.00       0.00       0.00       0.44       0.69

> <Gold.PLP.Fitness>
40.8476

> <Gold.PLP.PLP>
-40.1308

> <Gold.PLP.part.hbond>
-0.8669

> <Gold.PLP.part.metal>
0.0000

> <Gold.PLP.part.buried>
-4.8328

> <Gold.PLP.part.nonpolar>
-36.1280

> <Gold.PLP.part.repulsive>
0.5272

> <Gold.PLP.ligand.clash>
0.0000

> <Gold.PLP.ligand.torsion>
0.4438

> <Gold.PLP.Chemscore.Hbond>
0.3040

> <Gold.PLP.Chemscore.CHOScore>
0.0000

> <Gold.PLP.Chemscore.Metal>
0.0000

> <Gold.Chemscore.Hbonds>
donor molecule, donor type, donor heavy atom, donor atom, acceptor molecule, acceptor atom, score
      P1  H  1258  1270       L1    11  0.30

> <Gold.PLP.Chemscore.Internal.Correction>
0.6924

