#       Name:                EN300-15275_i001
#       Creating user name   aseyller
#       Creation time:       Fri Apr 21 16:58:23 2023


#       File generated by GOLD software.
#

@<TRIPOS>MOLECULE
EN300-15275_i001|benzaldehydes|mol2|135|dock7
    22    22     1
SMALL
USER_CHARGES


@<TRIPOS>ATOM
      1 N1          32.4018  34.9420  37.4743 N.am           1 <1>                0.0000
      2 C2          31.9387  36.1167  37.0031 C.2            1 <1>                0.0000
      3 O3          32.3922  36.5800  35.9780 O.2            1 <1>                0.0000
      4 C4          30.8574  36.8545  37.7497 C.3            1 <1>                0.0000
      5 O5          30.4620  36.0922  38.8919 O.3            1 <1>                0.0000
      6 C6          29.2145  36.3123  39.3774 C.ar           1 <1>                0.0000
      7 C7          28.9590  36.1429  40.7341 C.ar           1 <1>                0.0000
      8 C8          27.6998  36.3636  41.2298 C.ar           1 <1>                0.0000
      9 C9          26.6703  36.7607  40.3676 C.ar           1 <1>                0.0000
     10 C10         25.3199  36.9990  40.8933 C.2            1 <1>                0.0000
     11 O11         25.1275  37.0048  42.0909 O.2            1 <1>                0.0000
     12 C12         26.9329  36.9304  39.0026 C.ar           1 <1>                0.0000
     13 C13         28.1969  36.7121  38.5179 C.ar           1 <1>                0.0000
     14 H14         31.2361  37.8241  38.0733 H              1 <1>                0.0000
     15 H15         29.9983  37.0002  37.0949 H              1 <1>                0.0000
     16 H16         29.7538  35.8367  41.3980 H              1 <1>                0.0000
     17 H17         27.5023  36.2311  42.2833 H              1 <1>                0.0000
     18 H18         24.4981  37.1692  40.2136 H              1 <1>                0.0000
     19 H19         26.1423  37.2365  38.3335 H              1 <1>                0.0000
     20 H20         28.4005  36.8427  37.4653 H              1 <1>                0.0000
     21 H21         33.1005  34.4690  36.9957 H              1 <1>                0.0000
     22 H22         32.0391  34.5715  38.2941 H              1 <1>                0.0000
@<TRIPOS>BOND
    1    1    2 am    
    2    1   21 1     
    3    1   22 1     
    4    2    3 2     
    5    2    4 1     
    6    4    5 1     
    7    4   14 1     
    8    4   15 1     
    9    5    6 1     
   10    6    7 ar    
   11    6   13 ar    
   12    7    8 ar    
   13    7   16 1     
   14    8    9 ar    
   15    8   17 1     
   16    9   10 1     
   17    9   12 ar    
   18   10   11 2     
   19   10   18 1     
   20   12   13 ar    
   21   12   19 1     
   22   13   20 1     
@<TRIPOS>SUBSTRUCTURE
      1 ****           1
@<TRIPOS>SET
DONOR_HYDROGENS      STATIC     ATOMS    <user>   **** ""
2 21 22
ATOM$RED        STATIC     ATOMS    COLORGROUP SYSTEM
2 21 22
@<TRIPOS>COMMENT
> <Gold.Version>
2022.2.0

> <Gold.Id.Protein>
1qkm|1qkm_protein|mol2

> <Gold.Protein.RotatedTorsions>
[  496  491  490  487 ] final  174.74 input  -89.99 | X-H torsion

> <Gold.Protein.ActiveResidues>
 MET295  LEU298  THR299  LEU301  ALA302  GLU305  TRP335  MET336  LEU339  MET340 
 GLY342  LEU343  ARG346  PHE356  ILE373  ILE376  PHE377  LEU380  LYS471  GLY472 
 MET473  HIS475  LEU476  LEU477  ASN478  MET479  VAL484  VAL487 

> <Gold.Protein.RotatedAtoms>
   37.3185   33.3884   40.9136 H   0  0  0  0  0  0  0  0  0  0  0  0  # atno 496  bound_to 491 

> <Gold.Score>
     Score     S(PLP)   S(hbond)     S(cho)   S(metal)  DE(clash)   DE(tors)     intcor
     41.30     -40.66       0.34       0.00       0.00       0.00       0.53       0.69

> <Gold.PLP.Fitness>
41.3014

> <Gold.PLP.PLP>
-40.6570

> <Gold.PLP.part.hbond>
-0.6958

> <Gold.PLP.part.metal>
0.0000

> <Gold.PLP.part.buried>
-5.3579

> <Gold.PLP.part.nonpolar>
-36.5820

> <Gold.PLP.part.repulsive>
0.5579

> <Gold.PLP.ligand.clash>
0.0000

> <Gold.PLP.ligand.torsion>
0.5280

> <Gold.PLP.Chemscore.Hbond>
0.3360

> <Gold.PLP.Chemscore.CHOScore>
0.0000

> <Gold.PLP.Chemscore.Metal>
0.0000

> <Gold.Chemscore.Hbonds>
donor molecule, donor type, donor heavy atom, donor atom, acceptor molecule, acceptor atom, score
      P1  H  1258  1270       L1    11  0.34

> <Gold.PLP.Chemscore.Internal.Correction>
0.6924

