#       Name:                EN300-15275_i001
#       Creating user name   aseyller
#       Creation time:       Fri Apr 21 16:58:31 2023


#       File generated by GOLD software.
#

@<TRIPOS>MOLECULE
EN300-15275_i001|benzaldehydes|mol2|135|dock16
    22    22     1
SMALL
USER_CHARGES


@<TRIPOS>ATOM
      1 N1          28.2094  35.5738  42.1001 N.am           1 <1>                0.0000
      2 C2          28.0782  36.2022  40.9150 C.2            1 <1>                0.0000
      3 O3          26.9783  36.5236  40.5175 O.2            1 <1>                0.0000
      4 C4          29.2981  36.5056  40.0838 C.3            1 <1>                0.0000
      5 O5          28.9011  37.1566  38.8752 O.3            1 <1>                0.0000
      6 C6          29.8321  37.2527  37.8931 C.ar           1 <1>                0.0000
      7 C7          29.7385  38.2676  36.9466 C.ar           1 <1>                0.0000
      8 C8          30.6765  38.3689  35.9516 C.ar           1 <1>                0.0000
      9 C9          31.7302  37.4486  35.8898 C.ar           1 <1>                0.0000
     10 C10         32.7379  37.5528  34.8265 C.2            1 <1>                0.0000
     11 O11         33.5935  36.7000  34.7162 O.2            1 <1>                0.0000
     12 C12         31.8200  36.4290  36.8455 C.ar           1 <1>                0.0000
     13 C13         30.8796  36.3396  37.8394 C.ar           1 <1>                0.0000
     14 H14         29.9672  37.1579  40.6450 H              1 <1>                0.0000
     15 H15         29.8141  35.5761  39.8432 H              1 <1>                0.0000
     16 H16         28.9256  38.9768  36.9954 H              1 <1>                0.0000
     17 H17         30.6026  39.1569  35.2168 H              1 <1>                0.0000
     18 H18         32.7172  38.3885  34.1428 H              1 <1>                0.0000
     19 H19         32.6307  35.7167  36.8020 H              1 <1>                0.0000
     20 H20         30.9480  35.5536  38.5770 H              1 <1>                0.0000
     21 H21         27.4239  35.3750  42.6333 H              1 <1>                0.0000
     22 H22         29.0891  35.3167  42.4178 H              1 <1>                0.0000
@<TRIPOS>BOND
    1    1    2 am    
    2    1   21 1     
    3    1   22 1     
    4    2    3 2     
    5    2    4 1     
    6    4    5 1     
    7    4   14 1     
    8    4   15 1     
    9    5    6 1     
   10    6    7 ar    
   11    6   13 ar    
   12    7    8 ar    
   13    7   16 1     
   14    8    9 ar    
   15    8   17 1     
   16    9   10 1     
   17    9   12 ar    
   18   10   11 2     
   19   10   18 1     
   20   12   13 ar    
   21   12   19 1     
   22   13   20 1     
@<TRIPOS>SUBSTRUCTURE
      1 ****           1
@<TRIPOS>SET
DONOR_HYDROGENS      STATIC     ATOMS    <user>   **** ""
2 21 22
ATOM$RED        STATIC     ATOMS    COLORGROUP SYSTEM
2 21 22
@<TRIPOS>COMMENT
> <Gold.Version>
2022.2.0

> <Gold.Id.Protein>
1qkm|1qkm_protein|mol2

> <Gold.Protein.RotatedTorsions>
[  496  491  490  487 ] final  150.98 input  -89.99 | X-H torsion

> <Gold.Protein.ActiveResidues>
 MET295  LEU298  THR299  LEU301  ALA302  GLU305  TRP335  MET336  LEU339  MET340 
 GLY342  LEU343  ARG346  PHE356  ILE373  ILE376  PHE377  LEU380  LYS471  GLY472 
 MET473  HIS475  LEU476  LEU477  ASN478  MET479  VAL484  VAL487 

> <Gold.Protein.RotatedAtoms>
   37.2667   33.1132   41.1825 H   0  0  0  0  0  0  0  0  0  0  0  0  # atno 496  bound_to 491 

> <Gold.Score>
     Score     S(PLP)   S(hbond)     S(cho)   S(metal)  DE(clash)   DE(tors)     intcor
     39.31     -36.41       1.00       0.00       0.00       0.00       0.40       0.69

> <Gold.PLP.Fitness>
39.3059

> <Gold.PLP.PLP>
-36.4114

> <Gold.PLP.part.hbond>
-1.0000

> <Gold.PLP.part.metal>
0.0000

> <Gold.PLP.part.buried>
-5.5580

> <Gold.PLP.part.nonpolar>
-30.7322

> <Gold.PLP.part.repulsive>
0.3539

> <Gold.PLP.ligand.clash>
0.0000

> <Gold.PLP.ligand.torsion>
0.3990

> <Gold.PLP.Chemscore.Hbond>
1.0000

> <Gold.PLP.Chemscore.CHOScore>
0.0000

> <Gold.PLP.Chemscore.Metal>
0.0000

> <Gold.Chemscore.Hbonds>
donor molecule, donor type, donor heavy atom, donor atom, acceptor molecule, acceptor atom, score
      L1  H     1    21       P1   582  1.00

> <Gold.PLP.Chemscore.Internal.Correction>
0.6924

