#       Name:                EN300-15275_i001
#       Creating user name   aseyller
#       Creation time:       Fri Apr 21 16:58:34 2023


#       File generated by GOLD software.
#

@<TRIPOS>MOLECULE
EN300-15275_i001|benzaldehydes|mol2|135|dock19
    22    22     1
SMALL
USER_CHARGES


@<TRIPOS>ATOM
      1 N1          32.2724  36.4947  36.5098 N.am           1 <1>                0.0000
      2 C2          31.3840  37.4319  36.1238 C.2            1 <1>                0.0000
      3 O3          31.5831  38.0780  35.1168 O.2            1 <1>                0.0000
      4 C4          30.1434  37.6772  36.9434 C.3            1 <1>                0.0000
      5 O5          30.1567  36.8290  38.0934 O.3            1 <1>                0.0000
      6 C6          29.0287  36.7945  38.8462 C.ar           1 <1>                0.0000
      7 C7          29.1145  36.5469  40.2122 C.ar           1 <1>                0.0000
      8 C8          27.9774  36.5104  40.9774 C.ar           1 <1>                0.0000
      9 C9          26.7282  36.7235  40.3816 C.ar           1 <1>                0.0000
     10 C10         25.5071  36.6861  41.1966 C.2            1 <1>                0.0000
     11 O11         25.4496  37.3151  42.2322 O.2            1 <1>                0.0000
     12 C12         26.6474  36.9729  39.0059 C.ar           1 <1>                0.0000
     13 C13         27.7911  37.0123  38.2505 C.ar           1 <1>                0.0000
     14 H14         30.1180  38.7196  37.2611 H              1 <1>                0.0000
     15 H15         29.2613  37.4593  36.3413 H              1 <1>                0.0000
     16 H16         30.0785  36.3828  40.6706 H              1 <1>                0.0000
     17 H17         28.0451  36.3174  42.0379 H              1 <1>                0.0000
     18 H18         24.6603  36.0986  40.8740 H              1 <1>                0.0000
     19 H19         25.6863  37.1378  38.5416 H              1 <1>                0.0000
     20 H20         27.7298  37.2046  37.1895 H              1 <1>                0.0000
     21 H21         33.0728  36.3395  35.9843 H              1 <1>                0.0000
     22 H22         32.1131  35.9781  37.3152 H              1 <1>                0.0000
@<TRIPOS>BOND
    1    1    2 am    
    2    1   21 1     
    3    1   22 1     
    4    2    3 2     
    5    2    4 1     
    6    4    5 1     
    7    4   14 1     
    8    4   15 1     
    9    5    6 1     
   10    6    7 ar    
   11    6   13 ar    
   12    7    8 ar    
   13    7   16 1     
   14    8    9 ar    
   15    8   17 1     
   16    9   10 1     
   17    9   12 ar    
   18   10   11 2     
   19   10   18 1     
   20   12   13 ar    
   21   12   19 1     
   22   13   20 1     
@<TRIPOS>SUBSTRUCTURE
      1 ****           1
@<TRIPOS>SET
DONOR_HYDROGENS      STATIC     ATOMS    <user>   **** ""
2 21 22
ATOM$RED        STATIC     ATOMS    COLORGROUP SYSTEM
2 21 22
@<TRIPOS>COMMENT
> <Gold.Version>
2022.2.0

> <Gold.Id.Protein>
1qkm|1qkm_protein|mol2

> <Gold.Protein.RotatedTorsions>
[  496  491  490  487 ] final  -35.10 input  -89.99 | X-H torsion

> <Gold.Protein.ActiveResidues>
 MET295  LEU298  THR299  LEU301  ALA302  GLU305  TRP335  MET336  LEU339  MET340 
 GLY342  LEU343  ARG346  PHE356  ILE373  ILE376  PHE377  LEU380  LYS471  GLY472 
 MET473  HIS475  LEU476  LEU477  ASN478  MET479  VAL484  VAL487 

> <Gold.Protein.RotatedAtoms>
   36.3378   34.6143   41.8399 H   0  0  0  0  0  0  0  0  0  0  0  0  # atno 496  bound_to 491 

> <Gold.Score>
     Score     S(PLP)   S(hbond)     S(cho)   S(metal)  DE(clash)   DE(tors)     intcor
     40.08     -40.71       0.10       0.00       0.00       0.00       0.82       0.69

> <Gold.PLP.Fitness>
40.0757

> <Gold.PLP.PLP>
-40.7147

> <Gold.PLP.part.hbond>
-0.9392

> <Gold.PLP.part.metal>
0.0000

> <Gold.PLP.part.buried>
-5.5936

> <Gold.PLP.part.nonpolar>
-35.2129

> <Gold.PLP.part.repulsive>
0.3443

> <Gold.PLP.ligand.clash>
0.0000

> <Gold.PLP.ligand.torsion>
0.8213

> <Gold.PLP.Chemscore.Hbond>
0.1037

> <Gold.PLP.Chemscore.CHOScore>
0.0000

> <Gold.PLP.Chemscore.Metal>
0.0000

> <Gold.Chemscore.Hbonds>
donor molecule, donor type, donor heavy atom, donor atom, acceptor molecule, acceptor atom, score
      P1  H  1258  1270       L1    11  0.10

> <Gold.PLP.Chemscore.Internal.Correction>
0.6924

