#       Name:                EN300-15275_i001
#       Creating user name   aseyller
#       Creation time:       Fri Apr 21 16:58:33 2023


#       File generated by GOLD software.
#

@<TRIPOS>MOLECULE
EN300-15275_i001|benzaldehydes|mol2|135|dock18
    22    22     1
SMALL
USER_CHARGES


@<TRIPOS>ATOM
      1 N1          33.4680  35.8210  37.0589 N.am           1 <1>                0.0000
      2 C2          32.3484  36.5702  37.0159 C.2            1 <1>                0.0000
      3 O3          32.3099  37.5639  36.3215 O.2            1 <1>                0.0000
      4 C4          31.1443  36.1733  37.8306 C.3            1 <1>                0.0000
      5 O5          30.0431  37.0207  37.4971 O.3            1 <1>                0.0000
      6 C6          28.9758  37.0016  38.3343 C.ar           1 <1>                0.0000
      7 C7          27.7168  37.3547  37.8602 C.ar           1 <1>                0.0000
      8 C8          26.6349  37.3376  38.7023 C.ar           1 <1>                0.0000
      9 C9          26.7991  36.9631  40.0416 C.ar           1 <1>                0.0000
     10 C10         25.6436  36.9425  40.9479 C.2            1 <1>                0.0000
     11 O11         25.7693  37.3027  42.0993 O.2            1 <1>                0.0000
     12 C12         28.0687  36.6080  40.5139 C.ar           1 <1>                0.0000
     13 C13         29.1433  36.6235  39.6621 C.ar           1 <1>                0.0000
     14 H14         30.8843  35.1372  37.6135 H              1 <1>                0.0000
     15 H15         31.3735  36.2757  38.8913 H              1 <1>                0.0000
     16 H16         27.5914  37.6432  36.8271 H              1 <1>                0.0000
     17 H17         25.6578  37.6126  38.3333 H              1 <1>                0.0000
     18 H18         24.6819  36.6066  40.5891 H              1 <1>                0.0000
     19 H19         28.2006  36.3186  41.5460 H              1 <1>                0.0000
     20 H20         30.1229  36.3498  40.0253 H              1 <1>                0.0000
     21 H21         34.2443  36.0787  36.5374 H              1 <1>                0.0000
     22 H22         33.4987  35.0264  37.6142 H              1 <1>                0.0000
@<TRIPOS>BOND
    1    1    2 am    
    2    1   21 1     
    3    1   22 1     
    4    2    3 2     
    5    2    4 1     
    6    4    5 1     
    7    4   14 1     
    8    4   15 1     
    9    5    6 1     
   10    6    7 ar    
   11    6   13 ar    
   12    7    8 ar    
   13    7   16 1     
   14    8    9 ar    
   15    8   17 1     
   16    9   10 1     
   17    9   12 ar    
   18   10   11 2     
   19   10   18 1     
   20   12   13 ar    
   21   12   19 1     
   22   13   20 1     
@<TRIPOS>SUBSTRUCTURE
      1 ****           1
@<TRIPOS>SET
DONOR_HYDROGENS      STATIC     ATOMS    <user>   **** ""
2 21 22
ATOM$RED        STATIC     ATOMS    COLORGROUP SYSTEM
2 21 22
@<TRIPOS>COMMENT
> <Gold.Version>
2022.2.0

> <Gold.Id.Protein>
1qkm|1qkm_protein|mol2

> <Gold.Protein.RotatedTorsions>
[  496  491  490  487 ] final -171.53 input  -89.99 | X-H torsion

> <Gold.Protein.ActiveResidues>
 MET295  LEU298  THR299  LEU301  ALA302  GLU305  TRP335  MET336  LEU339  MET340 
 GLY342  LEU343  ARG346  PHE356  ILE373  ILE376  PHE377  LEU380  LYS471  GLY472 
 MET473  HIS475  LEU476  LEU477  ASN478  MET479  VAL484  VAL487 

> <Gold.Protein.RotatedAtoms>
   37.3075   33.5859   40.8053 H   0  0  0  0  0  0  0  0  0  0  0  0  # atno 496  bound_to 491 

> <Gold.Score>
     Score     S(PLP)   S(hbond)     S(cho)   S(metal)  DE(clash)   DE(tors)     intcor
     39.40     -40.14       0.01       0.00       0.00       0.00       0.73       0.69

> <Gold.PLP.Fitness>
39.3963

> <Gold.PLP.PLP>
-40.1410

> <Gold.PLP.part.hbond>
-1.0000

> <Gold.PLP.part.metal>
0.0000

> <Gold.PLP.part.buried>
-4.9727

> <Gold.PLP.part.nonpolar>
-34.8552

> <Gold.PLP.part.repulsive>
0.2608

> <Gold.PLP.ligand.clash>
0.0049

> <Gold.PLP.ligand.torsion>
0.7285

> <Gold.PLP.Chemscore.Hbond>
0.0083

> <Gold.PLP.Chemscore.CHOScore>
0.0000

> <Gold.PLP.Chemscore.Metal>
0.0000

> <Gold.Chemscore.Hbonds>
donor molecule, donor type, donor heavy atom, donor atom, acceptor molecule, acceptor atom, score
      P1  H  1258  1270       L1    11  0.01

> <Gold.PLP.Chemscore.Internal.Correction>
0.6924

