#       Name:                EN300-15275_i001
#       Creating user name   aseyller
#       Creation time:       Fri Apr 21 16:58:26 2023


#       File generated by GOLD software.
#

@<TRIPOS>MOLECULE
EN300-15275_i001|benzaldehydes|mol2|135|dock10
    22    22     1
SMALL
USER_CHARGES


@<TRIPOS>ATOM
      1 N1          33.4761  36.9097  34.3062 N.am           1 <1>                0.0000
      2 C2          32.3638  37.4542  34.8380 C.2            1 <1>                0.0000
      3 O3          31.9339  38.5018  34.4032 O.2            1 <1>                0.0000
      4 C4          31.6541  36.7616  35.9727 C.3            1 <1>                0.0000
      5 O5          30.4890  37.5071  36.3317 O.3            1 <1>                0.0000
      6 C6          29.8543  37.1452  37.4748 C.ar           1 <1>                0.0000
      7 C7          28.4816  37.3341  37.5948 C.ar           1 <1>                0.0000
      8 C8          27.8354  36.9704  38.7482 C.ar           1 <1>                0.0000
      9 C9          28.5599  36.4076  39.8061 C.ar           1 <1>                0.0000
     10 C10         27.8728  36.0158  41.0435 C.2            1 <1>                0.0000
     11 O11         28.5071  35.5583  41.9707 O.2            1 <1>                0.0000
     12 C12         29.9418  36.2190  39.6799 C.ar           1 <1>                0.0000
     13 C13         30.5776  36.5814  38.5203 C.ar           1 <1>                0.0000
     14 H14         31.3619  35.7589  35.6605 H              1 <1>                0.0000
     15 H15         32.3216  36.6946  36.8318 H              1 <1>                0.0000
     16 H16         27.9238  37.7682  36.7782 H              1 <1>                0.0000
     17 H17         26.7695  37.1182  38.8406 H              1 <1>                0.0000
     18 H18         26.8027  36.1350  41.1279 H              1 <1>                0.0000
     19 H19         30.5051  35.7854  40.4930 H              1 <1>                0.0000
     20 H20         31.6433  36.4364  38.4220 H              1 <1>                0.0000
     21 H21         33.9351  37.3575  33.5784 H              1 <1>                0.0000
     22 H22         33.8198  36.0720  34.6540 H              1 <1>                0.0000
@<TRIPOS>BOND
    1    1    2 am    
    2    1   21 1     
    3    1   22 1     
    4    2    3 2     
    5    2    4 1     
    6    4    5 1     
    7    4   14 1     
    8    4   15 1     
    9    5    6 1     
   10    6    7 ar    
   11    6   13 ar    
   12    7    8 ar    
   13    7   16 1     
   14    8    9 ar    
   15    8   17 1     
   16    9   10 1     
   17    9   12 ar    
   18   10   11 2     
   19   10   18 1     
   20   12   13 ar    
   21   12   19 1     
   22   13   20 1     
@<TRIPOS>SUBSTRUCTURE
      1 ****           1
@<TRIPOS>SET
DONOR_HYDROGENS      STATIC     ATOMS    <user>   **** ""
2 21 22
ATOM$RED        STATIC     ATOMS    COLORGROUP SYSTEM
2 21 22
@<TRIPOS>COMMENT
> <Gold.Version>
2022.2.0

> <Gold.Id.Protein>
1qkm|1qkm_protein|mol2

> <Gold.Protein.RotatedTorsions>
[  496  491  490  487 ] final   60.09 input  -89.99 | X-H torsion

> <Gold.Protein.ActiveResidues>
 MET295  LEU298  THR299  LEU301  ALA302  GLU305  TRP335  MET336  LEU339  MET340 
 GLY342  LEU343  ARG346  PHE356  ILE373  ILE376  PHE377  LEU380  LYS471  GLY472 
 MET473  HIS475  LEU476  LEU477  ASN478  MET479  VAL484  VAL487 

> <Gold.Protein.RotatedAtoms>
   36.5523   33.3180   42.3025 H   0  0  0  0  0  0  0  0  0  0  0  0  # atno 496  bound_to 491 

> <Gold.Score>
     Score     S(PLP)   S(hbond)     S(cho)   S(metal)  DE(clash)   DE(tors)     intcor
     40.20     -37.35       0.99       0.00       0.00       0.00       0.41       0.69

> <Gold.PLP.Fitness>
40.1988

> <Gold.PLP.PLP>
-37.3456

> <Gold.PLP.part.hbond>
-1.2179

> <Gold.PLP.part.metal>
0.0000

> <Gold.PLP.part.buried>
-5.2076

> <Gold.PLP.part.nonpolar>
-31.1397

> <Gold.PLP.part.repulsive>
0.3965

> <Gold.PLP.ligand.clash>
0.0000

> <Gold.PLP.ligand.torsion>
0.4065

> <Gold.PLP.Chemscore.Hbond>
0.9913

> <Gold.PLP.Chemscore.CHOScore>
0.0000

> <Gold.PLP.Chemscore.Metal>
0.0000

> <Gold.Chemscore.Hbonds>
donor molecule, donor type, donor heavy atom, donor atom, acceptor molecule, acceptor atom, score
      L1  H     1    21       P1  3229  0.99

> <Gold.PLP.Chemscore.Internal.Correction>
0.6924

