#       Name:                EN300-15275_i001
#       Creating user name   aseyller
#       Creation time:       Fri Apr 21 16:58:18 2023


#       File generated by GOLD software.
#

@<TRIPOS>MOLECULE
EN300-15275_i001|benzaldehydes|mol2|135|dock1
    22    22     1
SMALL
USER_CHARGES


@<TRIPOS>ATOM
      1 N1          28.1663  35.5002  42.1578 N.am           1 <1>                0.0000
      2 C2          27.9630  36.3138  41.1026 C.2            1 <1>                0.0000
      3 O3          26.8434  36.7004  40.8418 O.2            1 <1>                0.0000
      4 C4          29.1268  36.7430  40.2468 C.3            1 <1>                0.0000
      5 O5          29.7612  35.5890  39.6918 O.3            1 <1>                0.0000
      6 C6          30.5965  35.7905  38.6420 C.ar           1 <1>                0.0000
      7 C7          31.6099  34.8754  38.3772 C.ar           1 <1>                0.0000
      8 C8          32.4571  35.0746  37.3177 C.ar           1 <1>                0.0000
      9 C9          32.3003  36.2015  36.5013 C.ar           1 <1>                0.0000
     10 C10         33.2046  36.4195  35.3649 C.2            1 <1>                0.0000
     11 O11         33.0164  37.3500  34.6099 O.2            1 <1>                0.0000
     12 C12         31.2781  37.1196  36.7720 C.ar           1 <1>                0.0000
     13 C13         30.4330  36.9083  37.8310 C.ar           1 <1>                0.0000
     14 H14         28.7684  37.3835  39.4409 H              1 <1>                0.0000
     15 H15         29.8431  37.2932  40.8570 H              1 <1>                0.0000
     16 H16         31.7297  34.0066  39.0075 H              1 <1>                0.0000
     17 H17         33.2441  34.3638  37.1134 H              1 <1>                0.0000
     18 H18         34.0372  35.7514  35.2014 H              1 <1>                0.0000
     19 H19         31.1531  37.9903  36.1454 H              1 <1>                0.0000
     20 H20         29.6442  37.6158  38.0405 H              1 <1>                0.0000
     21 H21         27.4166  35.2209  42.7063 H              1 <1>                0.0000
     22 H22         29.0617  35.1910  42.3663 H              1 <1>                0.0000
@<TRIPOS>BOND
    1    1    2 am    
    2    1   21 1     
    3    1   22 1     
    4    2    3 2     
    5    2    4 1     
    6    4    5 1     
    7    4   14 1     
    8    4   15 1     
    9    5    6 1     
   10    6    7 ar    
   11    6   13 ar    
   12    7    8 ar    
   13    7   16 1     
   14    8    9 ar    
   15    8   17 1     
   16    9   10 1     
   17    9   12 ar    
   18   10   11 2     
   19   10   18 1     
   20   12   13 ar    
   21   12   19 1     
   22   13   20 1     
@<TRIPOS>SUBSTRUCTURE
      1 ****           1
@<TRIPOS>SET
DONOR_HYDROGENS      STATIC     ATOMS    <user>   **** ""
2 21 22
ATOM$RED        STATIC     ATOMS    COLORGROUP SYSTEM
2 21 22
@<TRIPOS>COMMENT
> <Gold.Version>
2022.2.0

> <Gold.Id.Protein>
1qkm|1qkm_protein|mol2

> <Gold.Protein.RotatedTorsions>
[  496  491  490  487 ] final  127.23 input  -89.99 | X-H torsion

> <Gold.Protein.ActiveResidues>
 MET295  LEU298  THR299  LEU301  ALA302  GLU305  TRP335  MET336  LEU339  MET340 
 GLY342  LEU343  ARG346  PHE356  ILE373  ILE376  PHE377  LEU380  LYS471  GLY472 
 MET473  HIS475  LEU476  LEU477  ASN478  MET479  VAL484  VAL487 

> <Gold.Protein.RotatedAtoms>
   37.1340   32.9607   41.5139 H   0  0  0  0  0  0  0  0  0  0  0  0  # atno 496  bound_to 491 

> <Gold.Score>
     Score     S(PLP)   S(hbond)     S(cho)   S(metal)  DE(clash)   DE(tors)     intcor
     43.09     -40.21       1.00       0.00       0.00       0.00       0.42       0.71

> <Gold.PLP.Fitness>
43.0916

> <Gold.PLP.PLP>
-40.2097

> <Gold.PLP.part.hbond>
-1.0000

> <Gold.PLP.part.metal>
0.0000

> <Gold.PLP.part.buried>
-5.9651

> <Gold.PLP.part.nonpolar>
-34.4520

> <Gold.PLP.part.repulsive>
0.4431

> <Gold.PLP.ligand.clash>
0.0000

> <Gold.PLP.ligand.torsion>
0.4159

> <Gold.PLP.Chemscore.Hbond>
1.0000

> <Gold.PLP.Chemscore.CHOScore>
0.0000

> <Gold.PLP.Chemscore.Metal>
0.0000

> <Gold.Chemscore.Hbonds>
donor molecule, donor type, donor heavy atom, donor atom, acceptor molecule, acceptor atom, score
      L1  H     1    21       P1   582  1.00

> <Gold.PLP.Chemscore.Internal.Correction>
0.7138

