#       Name:                EN300-15275_i001
#       Creating user name   aseyller
#       Creation time:       Fri Apr 21 16:58:24 2023


#       File generated by GOLD software.
#

@<TRIPOS>MOLECULE
EN300-15275_i001|benzaldehydes|mol2|135|dock8
    22    22     1
SMALL
USER_CHARGES


@<TRIPOS>ATOM
      1 N1          25.9828  36.1779  41.4753 N.am           1 <1>                0.0000
      2 C2          26.8488  36.5328  40.5055 C.2            1 <1>                0.0000
      3 O3          26.4376  37.0203  39.4738 O.2            1 <1>                0.0000
      4 C4          28.3281  36.3239  40.7029 C.3            1 <1>                0.0000
      5 O5          28.7639  35.2205  39.9062 O.3            1 <1>                0.0000
      6 C6          29.8646  35.4130  39.1369 C.ar           1 <1>                0.0000
      7 C7          30.6816  34.3347  38.8140 C.ar           1 <1>                0.0000
      8 C8          31.7955  34.5240  38.0373 C.ar           1 <1>                0.0000
      9 C9          32.1097  35.8056  37.5685 C.ar           1 <1>                0.0000
     10 C10         33.3013  36.0140  36.7357 C.2            1 <1>                0.0000
     11 O11         33.2327  36.7046  35.7409 O.2            1 <1>                0.0000
     12 C12         31.2835  36.8878  37.8960 C.ar           1 <1>                0.0000
     13 C13         30.1690  36.6869  38.6692 C.ar           1 <1>                0.0000
     14 H14         28.8654  37.2235  40.4025 H              1 <1>                0.0000
     15 H15         28.5285  36.1148  41.7537 H              1 <1>                0.0000
     16 H16         30.4383  33.3468  39.1760 H              1 <1>                0.0000
     17 H17         32.4297  33.6862  37.7877 H              1 <1>                0.0000
     18 H18         34.2385  35.5524  37.0090 H              1 <1>                0.0000
     19 H19         31.5215  37.8783  37.5370 H              1 <1>                0.0000
     20 H20         29.5311  37.5209  38.9224 H              1 <1>                0.0000
     21 H21         25.0303  36.3088  41.3466 H              1 <1>                0.0000
     22 H22         26.3117  35.7880  42.3003 H              1 <1>                0.0000
@<TRIPOS>BOND
    1    1    2 am    
    2    1   21 1     
    3    1   22 1     
    4    2    3 2     
    5    2    4 1     
    6    4    5 1     
    7    4   14 1     
    8    4   15 1     
    9    5    6 1     
   10    6    7 ar    
   11    6   13 ar    
   12    7    8 ar    
   13    7   16 1     
   14    8    9 ar    
   15    8   17 1     
   16    9   10 1     
   17    9   12 ar    
   18   10   11 2     
   19   10   18 1     
   20   12   13 ar    
   21   12   19 1     
   22   13   20 1     
@<TRIPOS>SUBSTRUCTURE
      1 ****           1
@<TRIPOS>SET
DONOR_HYDROGENS      STATIC     ATOMS    <user>   **** ""
2 21 22
ATOM$RED        STATIC     ATOMS    COLORGROUP SYSTEM
2 21 22
@<TRIPOS>COMMENT
> <Gold.Version>
2022.2.0

> <Gold.Id.Protein>
1qkm|1qkm_protein|mol2

> <Gold.Protein.RotatedTorsions>
[  496  491  490  487 ] final  -74.58 input  -89.99 | X-H torsion

> <Gold.Protein.ActiveResidues>
 MET295  LEU298  THR299  LEU301  ALA302  GLU305  TRP335  MET336  LEU339  MET340 
 GLY342  LEU343  ARG346  PHE356  ILE373  ILE376  PHE377  LEU380  LYS471  GLY472 
 MET473  HIS475  LEU476  LEU477  ASN478  MET479  VAL484  VAL487 

> <Gold.Protein.RotatedAtoms>
   36.6177   34.7239   41.2783 H   0  0  0  0  0  0  0  0  0  0  0  0  # atno 496  bound_to 491 

> <Gold.Score>
     Score     S(PLP)   S(hbond)     S(cho)   S(metal)  DE(clash)   DE(tors)     intcor
     41.66     -40.49       0.99       0.00       0.00       0.00       1.25       0.69

> <Gold.PLP.Fitness>
41.6576

> <Gold.PLP.PLP>
-40.4937

> <Gold.PLP.part.hbond>
-1.0000

> <Gold.PLP.part.metal>
0.0000

> <Gold.PLP.part.buried>
-5.7184

> <Gold.PLP.part.nonpolar>
-34.5475

> <Gold.PLP.part.repulsive>
0.2718

> <Gold.PLP.ligand.clash>
0.0000

> <Gold.PLP.ligand.torsion>
1.2522

> <Gold.PLP.Chemscore.Hbond>
0.9920

> <Gold.PLP.Chemscore.CHOScore>
0.0000

> <Gold.PLP.Chemscore.Metal>
0.0000

> <Gold.Chemscore.Hbonds>
donor molecule, donor type, donor heavy atom, donor atom, acceptor molecule, acceptor atom, score
      L1  H     1    22       P1   582  0.99

> <Gold.PLP.Chemscore.Internal.Correction>
0.6924

