#       Name:                EN300-15275_i001
#       Creating user name   aseyller
#       Creation time:       Fri Apr 21 16:58:22 2023


#       File generated by GOLD software.
#

@<TRIPOS>MOLECULE
EN300-15275_i001|benzaldehydes|mol2|135|dock6
    22    22     1
SMALL
USER_CHARGES


@<TRIPOS>ATOM
      1 N1          27.5291  35.6534  41.9151 N.am           1 <1>                0.0000
      2 C2          26.9430  36.2594  40.8636 C.2            1 <1>                0.0000
      3 O3          25.7481  36.4674  40.8721 O.2            1 <1>                0.0000
      4 C4          27.7723  36.6785  39.6771 C.3            1 <1>                0.0000
      5 O5          29.1422  36.3465  39.9122 O.3            1 <1>                0.0000
      6 C6          30.0048  36.5246  38.8804 C.ar           1 <1>                0.0000
      7 C7          31.1569  35.7497  38.7988 C.ar           1 <1>                0.0000
      8 C8          32.0323  35.9260  37.7583 C.ar           1 <1>                0.0000
      9 C9          31.7644  36.8880  36.7765 C.ar           1 <1>                0.0000
     10 C10         32.6983  37.0807  35.6596 C.2            1 <1>                0.0000
     11 O11         32.4750  37.9289  34.8218 O.2            1 <1>                0.0000
     12 C12         30.6027  37.6652  36.8631 C.ar           1 <1>                0.0000
     13 C13         29.7312  37.4774  37.9050 C.ar           1 <1>                0.0000
     14 H14         27.4202  36.1588  38.7860 H              1 <1>                0.0000
     15 H15         27.6792  37.7546  39.5307 H              1 <1>                0.0000
     16 H16         31.3624  35.0081  39.5565 H              1 <1>                0.0000
     17 H17         32.9270  35.3243  37.6962 H              1 <1>                0.0000
     18 H18         33.5839  36.4673  35.5843 H              1 <1>                0.0000
     19 H19         30.3916  38.4085  36.1085 H              1 <1>                0.0000
     20 H20         28.8350  38.0763  37.9726 H              1 <1>                0.0000
     21 H21         26.9947  35.3802  42.6772 H              1 <1>                0.0000
     22 H22         28.4847  35.4870  41.9082 H              1 <1>                0.0000
@<TRIPOS>BOND
    1    1    2 am    
    2    1   21 1     
    3    1   22 1     
    4    2    3 2     
    5    2    4 1     
    6    4    5 1     
    7    4   14 1     
    8    4   15 1     
    9    5    6 1     
   10    6    7 ar    
   11    6   13 ar    
   12    7    8 ar    
   13    7   16 1     
   14    8    9 ar    
   15    8   17 1     
   16    9   10 1     
   17    9   12 ar    
   18   10   11 2     
   19   10   18 1     
   20   12   13 ar    
   21   12   19 1     
   22   13   20 1     
@<TRIPOS>SUBSTRUCTURE
      1 ****           1
@<TRIPOS>SET
DONOR_HYDROGENS      STATIC     ATOMS    <user>   **** ""
2 21 22
ATOM$RED        STATIC     ATOMS    COLORGROUP SYSTEM
2 21 22
@<TRIPOS>COMMENT
> <Gold.Version>
2022.2.0

> <Gold.Id.Protein>
1qkm|1qkm_protein|mol2

> <Gold.Protein.RotatedTorsions>
[  496  491  490  487 ] final  -22.02 input  -89.99 | X-H torsion

> <Gold.Protein.ActiveResidues>
 MET295  LEU298  THR299  LEU301  ALA302  GLU305  TRP335  MET336  LEU339  MET340 
 GLY342  LEU343  ARG346  PHE356  ILE373  ILE376  PHE377  LEU380  LYS471  GLY472 
 MET473  HIS475  LEU476  LEU477  ASN478  MET479  VAL484  VAL487 

> <Gold.Protein.RotatedAtoms>
   36.2865   34.4920   42.0089 H   0  0  0  0  0  0  0  0  0  0  0  0  # atno 496  bound_to 491 

> <Gold.Score>
     Score     S(PLP)   S(hbond)     S(cho)   S(metal)  DE(clash)   DE(tors)     intcor
     40.05     -37.11       1.00       0.00       0.00       0.00       0.38       0.69

> <Gold.PLP.Fitness>
40.0467

> <Gold.PLP.PLP>
-37.1129

> <Gold.PLP.part.hbond>
-1.0000

> <Gold.PLP.part.metal>
0.0000

> <Gold.PLP.part.buried>
-5.9624

> <Gold.PLP.part.nonpolar>
-30.4937

> <Gold.PLP.part.repulsive>
0.4321

> <Gold.PLP.ligand.clash>
0.0000

> <Gold.PLP.ligand.torsion>
0.3793

> <Gold.PLP.Chemscore.Hbond>
1.0000

> <Gold.PLP.Chemscore.CHOScore>
0.0000

> <Gold.PLP.Chemscore.Metal>
0.0000

> <Gold.Chemscore.Hbonds>
donor molecule, donor type, donor heavy atom, donor atom, acceptor molecule, acceptor atom, score
      L1  H     1    21       P1   582  1.00

> <Gold.PLP.Chemscore.Internal.Correction>
0.6924

