#       Name:                EN300-15275_i001
#       Creating user name   aseyller
#       Creation time:       Fri Apr 21 16:58:35 2023


#       File generated by GOLD software.
#

@<TRIPOS>MOLECULE
EN300-15275_i001|benzaldehydes|mol2|135|dock20
    22    22     1
SMALL
USER_CHARGES


@<TRIPOS>ATOM
      1 N1          32.0220  33.4453  38.0071 N.am           1 <1>                0.0000
      2 C2          32.0106  34.7705  37.7614 C.2            1 <1>                0.0000
      3 O3          32.9854  35.3058  37.2773 O.2            1 <1>                0.0000
      4 C4          30.7870  35.5870  38.0882 C.3            1 <1>                0.0000
      5 O5          30.3266  35.2518  39.3989 O.3            1 <1>                0.0000
      6 C6          29.1168  35.7404  39.7704 C.ar           1 <1>                0.0000
      7 C7          28.1738  36.0663  38.8013 C.ar           1 <1>                0.0000
      8 C8          26.9498  36.5610  39.1715 C.ar           1 <1>                0.0000
      9 C9          26.6497  36.7374  40.5278 C.ar           1 <1>                0.0000
     10 C10         25.3400  37.2664  40.9299 C.2            1 <1>                0.0000
     11 O11         24.8903  37.0041  42.0255 O.2            1 <1>                0.0000
     12 C12         27.6025  36.4073  41.4996 C.ar           1 <1>                0.0000
     13 C13         28.8217  35.9084  41.1190 C.ar           1 <1>                0.0000
     14 H14         31.0371  36.6473  38.0511 H              1 <1>                0.0000
     15 H15         30.0028  35.3731  37.3620 H              1 <1>                0.0000
     16 H16         28.4064  35.9298  37.7556 H              1 <1>                0.0000
     17 H17         26.2185  36.8144  38.4182 H              1 <1>                0.0000
     18 H18         24.7772  37.8889  40.2502 H              1 <1>                0.0000
     19 H19         27.3759  36.5416  42.5470 H              1 <1>                0.0000
     20 H20         29.5572  35.6535  41.8677 H              1 <1>                0.0000
     21 H21         32.8111  32.9204  37.8003 H              1 <1>                0.0000
     22 H22         31.2424  33.0172  38.3943 H              1 <1>                0.0000
@<TRIPOS>BOND
    1    1    2 am    
    2    1   21 1     
    3    1   22 1     
    4    2    3 2     
    5    2    4 1     
    6    4    5 1     
    7    4   14 1     
    8    4   15 1     
    9    5    6 1     
   10    6    7 ar    
   11    6   13 ar    
   12    7    8 ar    
   13    7   16 1     
   14    8    9 ar    
   15    8   17 1     
   16    9   10 1     
   17    9   12 ar    
   18   10   11 2     
   19   10   18 1     
   20   12   13 ar    
   21   12   19 1     
   22   13   20 1     
@<TRIPOS>SUBSTRUCTURE
      1 ****           1
@<TRIPOS>SET
DONOR_HYDROGENS      STATIC     ATOMS    <user>   **** ""
2 21 22
ATOM$RED        STATIC     ATOMS    COLORGROUP SYSTEM
2 21 22
@<TRIPOS>COMMENT
> <Gold.Version>
2022.2.0

> <Gold.Id.Protein>
1qkm|1qkm_protein|mol2

> <Gold.Protein.RotatedTorsions>
[  496  491  490  487 ] final   90.74 input  -89.99 | X-H torsion

> <Gold.Protein.ActiveResidues>
 MET295  LEU298  THR299  LEU301  ALA302  GLU305  TRP335  MET336  LEU339  MET340 
 GLY342  LEU343  ARG346  PHE356  ILE373  ILE376  PHE377  LEU380  LYS471  GLY472 
 MET473  HIS475  LEU476  LEU477  ASN478  MET479  VAL484  VAL487 

> <Gold.Protein.RotatedAtoms>
   36.8271   33.0171   42.0153 H   0  0  0  0  0  0  0  0  0  0  0  0  # atno 496  bound_to 491 

> <Gold.Score>
     Score     S(PLP)   S(hbond)     S(cho)   S(metal)  DE(clash)   DE(tors)     intcor
     42.87     -42.35       0.38       0.00       0.00       0.00       0.67       0.69

> <Gold.PLP.Fitness>
42.8658

> <Gold.PLP.PLP>
-42.3548

> <Gold.PLP.part.hbond>
-0.2994

> <Gold.PLP.part.metal>
0.0000

> <Gold.PLP.part.buried>
-5.9853

> <Gold.PLP.part.nonpolar>
-37.8369

> <Gold.PLP.part.repulsive>
0.8195

> <Gold.PLP.ligand.clash>
0.0000

> <Gold.PLP.ligand.torsion>
0.6667

> <Gold.PLP.Chemscore.Hbond>
0.3840

> <Gold.PLP.Chemscore.CHOScore>
0.0000

> <Gold.PLP.Chemscore.Metal>
0.0000

> <Gold.Chemscore.Hbonds>
donor molecule, donor type, donor heavy atom, donor atom, acceptor molecule, acceptor atom, score
      P1  H  1258  1270       L1    11  0.38

> <Gold.PLP.Chemscore.Internal.Correction>
0.6924

