#       Name:                EN300-15275_i001
#       Creating user name   aseyller
#       Creation time:       Fri Apr 21 16:58:25 2023


#       File generated by GOLD software.
#

@<TRIPOS>MOLECULE
EN300-15275_i001|benzaldehydes|mol2|135|dock9
    22    22     1
SMALL
USER_CHARGES


@<TRIPOS>ATOM
      1 N1          26.8860  35.4580  41.2766 N.am           1 <1>                0.0000
      2 C2          28.1103  36.0006  41.1239 C.2            1 <1>                0.0000
      3 O3          28.7991  36.2264  42.0964 O.2            1 <1>                0.0000
      4 C4          28.6235  36.3268  39.7451 C.3            1 <1>                0.0000
      5 O5          29.9411  35.7961  39.5892 O.3            1 <1>                0.0000
      6 C6          30.6387  36.1912  38.4948 C.ar           1 <1>                0.0000
      7 C7          31.6453  35.3785  37.9842 C.ar           1 <1>                0.0000
      8 C8          32.3536  35.7733  36.8785 C.ar           1 <1>                0.0000
      9 C9          32.0616  36.9968  36.2631 C.ar           1 <1>                0.0000
     10 C10         32.8168  37.4244  35.0783 C.2            1 <1>                0.0000
     11 O11         33.6467  36.6871  34.5894 O.2            1 <1>                0.0000
     12 C12         31.0468  37.8111  36.7809 C.ar           1 <1>                0.0000
     13 C13         30.3409  37.4045  37.8840 C.ar           1 <1>                0.0000
     14 H14         27.9635  35.8858  38.9980 H              1 <1>                0.0000
     15 H15         28.6495  37.4085  39.6136 H              1 <1>                0.0000
     16 H16         31.8696  34.4351  38.4595 H              1 <1>                0.0000
     17 H17         33.1356  35.1419  36.4832 H              1 <1>                0.0000
     18 H18         32.6333  38.3952  34.6423 H              1 <1>                0.0000
     19 H19         30.8178  38.7556  36.3100 H              1 <1>                0.0000
     20 H20         29.5580  38.0318  38.2841 H              1 <1>                0.0000
     21 H21         26.5542  35.2517  42.1644 H              1 <1>                0.0000
     22 H22         26.3352  35.2775  40.4988 H              1 <1>                0.0000
@<TRIPOS>BOND
    1    1    2 am    
    2    1   21 1     
    3    1   22 1     
    4    2    3 2     
    5    2    4 1     
    6    4    5 1     
    7    4   14 1     
    8    4   15 1     
    9    5    6 1     
   10    6    7 ar    
   11    6   13 ar    
   12    7    8 ar    
   13    7   16 1     
   14    8    9 ar    
   15    8   17 1     
   16    9   10 1     
   17    9   12 ar    
   18   10   11 2     
   19   10   18 1     
   20   12   13 ar    
   21   12   19 1     
   22   13   20 1     
@<TRIPOS>SUBSTRUCTURE
      1 ****           1
@<TRIPOS>SET
DONOR_HYDROGENS      STATIC     ATOMS    <user>   **** ""
2 21 22
ATOM$RED        STATIC     ATOMS    COLORGROUP SYSTEM
2 21 22
@<TRIPOS>COMMENT
> <Gold.Version>
2022.2.0

> <Gold.Id.Protein>
1qkm|1qkm_protein|mol2

> <Gold.Protein.RotatedTorsions>
[  496  491  490  487 ] final   46.76 input  -89.99 | X-H torsion

> <Gold.Protein.ActiveResidues>
 MET295  LEU298  THR299  LEU301  ALA302  GLU305  TRP335  MET336  LEU339  MET340 
 GLY342  LEU343  ARG346  PHE356  ILE373  ILE376  PHE377  LEU380  LYS471  GLY472 
 MET473  HIS475  LEU476  LEU477  ASN478  MET479  VAL484  VAL487 

> <Gold.Protein.RotatedAtoms>
   36.4493   33.5009   42.3647 H   0  0  0  0  0  0  0  0  0  0  0  0  # atno 496  bound_to 491 

> <Gold.Score>
     Score     S(PLP)   S(hbond)     S(cho)   S(metal)  DE(clash)   DE(tors)     intcor
     40.88     -38.17       1.00       0.00       0.00       0.00       0.49       0.69

> <Gold.PLP.Fitness>
40.8795

> <Gold.PLP.PLP>
-38.1734

> <Gold.PLP.part.hbond>
-1.0000

> <Gold.PLP.part.metal>
0.0000

> <Gold.PLP.part.buried>
-5.4344

> <Gold.PLP.part.nonpolar>
-32.3260

> <Gold.PLP.part.repulsive>
0.5619

> <Gold.PLP.ligand.clash>
0.0000

> <Gold.PLP.ligand.torsion>
0.4931

> <Gold.PLP.Chemscore.Hbond>
1.0000

> <Gold.PLP.Chemscore.CHOScore>
0.0000

> <Gold.PLP.Chemscore.Metal>
0.0000

> <Gold.Chemscore.Hbonds>
donor molecule, donor type, donor heavy atom, donor atom, acceptor molecule, acceptor atom, score
      L1  H     1    21       P1   582  1.00

> <Gold.PLP.Chemscore.Internal.Correction>
0.6924

