#       Name:                EN300-15275_i001
#       Creating user name   aseyller
#       Creation time:       Fri Apr 21 16:58:29 2023


#       File generated by GOLD software.
#

@<TRIPOS>MOLECULE
EN300-15275_i001|benzaldehydes|mol2|135|dock14
    22    22     1
SMALL
USER_CHARGES


@<TRIPOS>ATOM
      1 N1          24.8975  36.7102  41.1999 N.am           1 <1>                0.0000
      2 C2          26.1401  36.5910  40.6916 C.2            1 <1>                0.0000
      3 O3          27.1024  36.6198  41.4294 O.2            1 <1>                0.0000
      4 C4          26.3339  36.4219  39.2068 C.3            1 <1>                0.0000
      5 O5          27.2126  37.4393  38.7221 O.3            1 <1>                0.0000
      6 C6          28.5108  37.0934  38.5339 C.ar           1 <1>                0.0000
      7 C7          29.2780  37.7683  37.5903 C.ar           1 <1>                0.0000
      8 C8          30.5904  37.4223  37.3958 C.ar           1 <1>                0.0000
      9 C9          31.1582  36.3877  38.1495 C.ar           1 <1>                0.0000
     10 C10         32.5636  36.0132  37.9457 C.2            1 <1>                0.0000
     11 O11         33.0742  36.1458  36.8534 O.2            1 <1>                0.0000
     12 C12         30.3816  35.7116  39.0987 C.ar           1 <1>                0.0000
     13 C13         29.0715  36.0689  39.2890 C.ar           1 <1>                0.0000
     14 H14         26.7669  35.4419  39.0061 H              1 <1>                0.0000
     15 H15         25.3707  36.5036  38.7030 H              1 <1>                0.0000
     16 H16         28.8390  38.5661  37.0096 H              1 <1>                0.0000
     17 H17         31.1850  37.9465  36.6623 H              1 <1>                0.0000
     18 H18         33.1424  35.6199  38.7682 H              1 <1>                0.0000
     19 H19         30.8148  34.9129  39.6824 H              1 <1>                0.0000
     20 H20         28.4716  35.5481  40.0208 H              1 <1>                0.0000
     21 H21         24.7731  36.8228  42.1553 H              1 <1>                0.0000
     22 H22         24.1280  36.6871  40.6099 H              1 <1>                0.0000
@<TRIPOS>BOND
    1    1    2 am    
    2    1   21 1     
    3    1   22 1     
    4    2    3 2     
    5    2    4 1     
    6    4    5 1     
    7    4   14 1     
    8    4   15 1     
    9    5    6 1     
   10    6    7 ar    
   11    6   13 ar    
   12    7    8 ar    
   13    7   16 1     
   14    8    9 ar    
   15    8   17 1     
   16    9   10 1     
   17    9   12 ar    
   18   10   11 2     
   19   10   18 1     
   20   12   13 ar    
   21   12   19 1     
   22   13   20 1     
@<TRIPOS>SUBSTRUCTURE
      1 ****           1
@<TRIPOS>SET
DONOR_HYDROGENS      STATIC     ATOMS    <user>   **** ""
2 21 22
ATOM$RED        STATIC     ATOMS    COLORGROUP SYSTEM
2 21 22
@<TRIPOS>COMMENT
> <Gold.Version>
2022.2.0

> <Gold.Id.Protein>
1qkm|1qkm_protein|mol2

> <Gold.Protein.RotatedTorsions>
[  496  491  490  487 ] final  -85.99 input  -89.99 | X-H torsion

> <Gold.Protein.ActiveResidues>
 MET295  LEU298  THR299  LEU301  ALA302  GLU305  TRP335  MET336  LEU339  MET340 
 GLY342  LEU343  ARG346  PHE356  ILE373  ILE376  PHE377  LEU380  LYS471  GLY472 
 MET473  HIS475  LEU476  LEU477  ASN478  MET479  VAL484  VAL487 

> <Gold.Protein.RotatedAtoms>
   36.7204   34.6776   41.1282 H   0  0  0  0  0  0  0  0  0  0  0  0  # atno 496  bound_to 491 

> <Gold.Score>
     Score     S(PLP)   S(hbond)     S(cho)   S(metal)  DE(clash)   DE(tors)     intcor
     41.36     -39.39       1.00       0.00       0.00       0.00       0.86       0.69

> <Gold.PLP.Fitness>
41.3644

> <Gold.PLP.PLP>
-39.3886

> <Gold.PLP.part.hbond>
-1.0000

> <Gold.PLP.part.metal>
0.0000

> <Gold.PLP.part.buried>
-4.5079

> <Gold.PLP.part.nonpolar>
-34.3068

> <Gold.PLP.part.repulsive>
0.8609

> <Gold.PLP.ligand.clash>
0.0000

> <Gold.PLP.ligand.torsion>
0.8583

> <Gold.PLP.Chemscore.Hbond>
1.0000

> <Gold.PLP.Chemscore.CHOScore>
0.0000

> <Gold.PLP.Chemscore.Metal>
0.0000

> <Gold.Chemscore.Hbonds>
donor molecule, donor type, donor heavy atom, donor atom, acceptor molecule, acceptor atom, score
      L1  H     1    22       P1  1131  1.00

> <Gold.PLP.Chemscore.Internal.Correction>
0.6924

