#       Name:                EN300-78665_i001
#       Creating user name   aseyller
#       Creation time:       Fri Apr 21 15:14:38 2023


#       File generated by GOLD software.
#

@<TRIPOS>MOLECULE
EN300-78665_i001|amine_1|mol2|884|dock17
    21    21     1
SMALL
USER_CHARGES


@<TRIPOS>ATOM
      1 C1          28.0781  39.2293  36.9692 C.3            1 <1>                0.0000
      2 S2          28.8741  37.7978  37.7487 S.o2           1 <1>                0.0000
      3 O3          28.9565  36.7137  36.8338 O.2            1 <1>                0.0000
      4 O4          30.0061  38.2067  38.5040 O.2            1 <1>                0.0000
      5 C5          27.7154  37.2564  38.9607 C.ar           1 <1>                0.0000
      6 C6          26.4142  37.7224  38.9276 C.ar           1 <1>                0.0000
      7 C7          25.5006  37.3014  39.8765 C.ar           1 <1>                0.0000
      8 C8          25.8876  36.4100  40.8634 C.ar           1 <1>                0.0000
      9 O9          24.9899  35.9947  41.7970 O.3            1 <1>                0.0000
     10 C10         27.1984  35.9395  40.8972 C.ar           1 <1>                0.0000
     11 N11         27.5952  35.0386  41.8922 N.pl3          1 <1>                0.0000
     12 C12         28.1081  36.3622  39.9390 C.ar           1 <1>                0.0000
     13 H13         27.1340  38.9204  36.5204 H              1 <1>                0.0000
     14 H14         27.8891  39.9946  37.7221 H              1 <1>                0.0000
     15 H15         28.7326  39.6332  36.1969 H              1 <1>                0.0000
     16 H16         26.1106  38.4176  38.1588 H              1 <1>                0.0000
     17 H17         24.4852  37.6680  39.8481 H              1 <1>                0.0000
     18 H18         29.1251  35.9995  39.9623 H              1 <1>                0.0000
     19 H19         25.3902  35.5529  42.5583 H              1 <1>                0.0000
     20 H20         26.9571  34.7410  42.5594 H              1 <1>                0.0000
     21 H21         28.5082  34.7117  41.9145 H              1 <1>                0.0000
@<TRIPOS>BOND
    1    1    2 1     
    2    1   13 1     
    3    1   14 1     
    4    1   15 1     
    5    2    3 2     
    6    2    4 2     
    7    2    5 1     
    8    5    6 ar    
    9    5   12 ar    
   10    6    7 ar    
   11    6   16 1     
   12    7    8 ar    
   13    7   17 1     
   14    8    9 1     
   15    8   10 ar    
   16    9   19 1     
   17   10   11 1     
   18   10   12 ar    
   19   11   20 1     
   20   11   21 1     
   21   12   18 1     
@<TRIPOS>SUBSTRUCTURE
      1 ****           1
@<TRIPOS>SET
DONOR_HYDROGENS      STATIC     ATOMS    <user>   **** ""
3 19 20 21
ATOM$RED        STATIC     ATOMS    COLORGROUP SYSTEM
3 19 20 21
@<TRIPOS>COMMENT
> <Gold.Version>
2022.2.0

> <Gold.Id.Protein>
1qkm|1qkm_protein|mol2

> <Gold.Protein.RotatedTorsions>
[  496  491  490  487 ] final   95.10 input  -89.99 | X-H torsion

> <Gold.Protein.ActiveResidues>
 MET295  LEU298  THR299  LEU301  ALA302  GLU305  TRP335  MET336  LEU339  MET340 
 GLY342  LEU343  ARG346  PHE356  ILE373  ILE376  PHE377  LEU380  LYS471  GLY472 
 MET473  HIS475  LEU476  LEU477  ASN478  MET479  VAL484  VAL487 

> <Gold.Protein.RotatedAtoms>
   36.8672   32.9917   41.9615 H   0  0  0  0  0  0  0  0  0  0  0  0  # atno 496  bound_to 491 

> <Gold.Score>
     Score     S(PLP)   S(hbond)     S(cho)   S(metal)  DE(clash)   DE(tors)     intcor
     42.03     -35.27       2.36       0.00       0.00       0.00       1.20       2.08

> <Gold.PLP.Fitness>
42.0309

> <Gold.PLP.PLP>
-35.2742

> <Gold.PLP.part.hbond>
-3.3287

> <Gold.PLP.part.metal>
0.0000

> <Gold.PLP.part.buried>
-2.0571

> <Gold.PLP.part.nonpolar>
-29.3394

> <Gold.PLP.part.repulsive>
0.0762

> <Gold.PLP.ligand.clash>
0.0000

> <Gold.PLP.ligand.torsion>
1.2001

> <Gold.PLP.Chemscore.Hbond>
2.3592

> <Gold.PLP.Chemscore.CHOScore>
0.0000

> <Gold.PLP.Chemscore.Metal>
0.0000

> <Gold.Chemscore.Hbonds>
donor molecule, donor type, donor heavy atom, donor atom, acceptor molecule, acceptor atom, score
      L1  H     9    19       P1   582  1.00
      L1  H    11    20       P1   582  0.96
      P1  H  1258  1270       L1     9  0.40

> <Gold.PLP.Chemscore.Internal.Correction>
2.0796

