#       Name:                EN300-78665_i001
#       Creating user name   aseyller
#       Creation time:       Fri Apr 21 15:14:37 2023


#       File generated by GOLD software.
#

@<TRIPOS>MOLECULE
EN300-78665_i001|amine_1|mol2|884|dock15
    21    21     1
SMALL
USER_CHARGES


@<TRIPOS>ATOM
      1 C1          32.7891  36.9398  34.9816 C.3            1 <1>                0.0000
      2 S2          31.4162  38.0173  35.4760 S.o2           1 <1>                0.0000
      3 O3          31.8940  39.3145  35.8051 O.2            1 <1>                0.0000
      4 O4          30.3076  37.8445  34.6040 O.2            1 <1>                0.0000
      5 C5          30.8676  37.3534  37.0131 C.ar           1 <1>                0.0000
      6 C6          29.7690  37.9017  37.6484 C.ar           1 <1>                0.0000
      7 C7          29.3341  37.3852  38.8552 C.ar           1 <1>                0.0000
      8 C8          29.9991  36.3152  39.4308 C.ar           1 <1>                0.0000
      9 O9          29.5722  35.8059  40.6175 O.3            1 <1>                0.0000
     10 C10         31.1059  35.7617  38.7910 C.ar           1 <1>                0.0000
     11 N11         31.7818  34.6803  39.3680 N.pl3          1 <1>                0.0000
     12 C12         31.5333  36.2818  37.5781 C.ar           1 <1>                0.0000
     13 H13         33.5697  36.9742  35.7415 H              1 <1>                0.0000
     14 H14         32.4284  35.9165  34.8773 H              1 <1>                0.0000
     15 H15         33.1940  37.2811  34.0289 H              1 <1>                0.0000
     16 H16         29.2492  38.7362  37.2012 H              1 <1>                0.0000
     17 H17         28.4760  37.8165  39.3492 H              1 <1>                0.0000
     18 H18         32.3910  35.8551  37.0795 H              1 <1>                0.0000
     19 H19         30.2874  35.5644  41.2219 H              1 <1>                0.0000
     20 H20         31.4797  34.3153  40.2144 H              1 <1>                0.0000
     21 H21         32.5524  34.2958  38.9215 H              1 <1>                0.0000
@<TRIPOS>BOND
    1    1    2 1     
    2    1   13 1     
    3    1   14 1     
    4    1   15 1     
    5    2    3 2     
    6    2    4 2     
    7    2    5 1     
    8    5    6 ar    
    9    5   12 ar    
   10    6    7 ar    
   11    6   16 1     
   12    7    8 ar    
   13    7   17 1     
   14    8    9 1     
   15    8   10 ar    
   16    9   19 1     
   17   10   11 1     
   18   10   12 ar    
   19   11   20 1     
   20   11   21 1     
   21   12   18 1     
@<TRIPOS>SUBSTRUCTURE
      1 ****           1
@<TRIPOS>SET
DONOR_HYDROGENS      STATIC     ATOMS    <user>   **** ""
3 19 20 21
ATOM$RED        STATIC     ATOMS    COLORGROUP SYSTEM
3 19 20 21
@<TRIPOS>COMMENT
> <Gold.Version>
2022.2.0

> <Gold.Id.Protein>
1qkm|1qkm_protein|mol2

> <Gold.Protein.RotatedTorsions>
[  496  491  490  487 ] final -145.23 input  -89.99 | X-H torsion

> <Gold.Protein.ActiveResidues>
 MET295  LEU298  THR299  LEU301  ALA302  GLU305  TRP335  MET336  LEU339  MET340 
 GLY342  LEU343  ARG346  PHE356  ILE373  ILE376  PHE377  LEU380  LYS471  GLY472 
 MET473  HIS475  LEU476  LEU477  ASN478  MET479  VAL484  VAL487 

> <Gold.Protein.RotatedAtoms>
   37.2054   33.9939   40.7201 H   0  0  0  0  0  0  0  0  0  0  0  0  # atno 496  bound_to 491 

> <Gold.Score>
     Score     S(PLP)   S(hbond)     S(cho)   S(metal)  DE(clash)   DE(tors)     intcor
     33.43     -29.20       1.52       0.00       0.00       0.00       1.21       2.08

> <Gold.PLP.Fitness>
33.4290

> <Gold.PLP.PLP>
-29.1986

> <Gold.PLP.part.hbond>
-2.0000

> <Gold.PLP.part.metal>
0.0000

> <Gold.PLP.part.buried>
1.1354

> <Gold.PLP.part.nonpolar>
-27.9889

> <Gold.PLP.part.repulsive>
0.1672

> <Gold.PLP.ligand.clash>
0.0000

> <Gold.PLP.ligand.torsion>
1.2097

> <Gold.PLP.Chemscore.Hbond>
1.5234

> <Gold.PLP.Chemscore.CHOScore>
0.0000

> <Gold.PLP.Chemscore.Metal>
0.0000

> <Gold.Chemscore.Hbonds>
donor molecule, donor type, donor heavy atom, donor atom, acceptor molecule, acceptor atom, score
      L1  H     9    19       P1   470  1.00
      L1  H    11    20       P1   470  0.52

> <Gold.PLP.Chemscore.Internal.Correction>
2.0796

