#       Name:                EN300-78665_i001
#       Creating user name   aseyller
#       Creation time:       Fri Apr 21 15:14:38 2023


#       File generated by GOLD software.
#

@<TRIPOS>MOLECULE
EN300-78665_i001|amine_1|mol2|884|dock19
    21    21     1
SMALL
USER_CHARGES


@<TRIPOS>ATOM
      1 C1          29.4205  37.0011  36.4777 C.3            1 <1>                0.0000
      2 S2          30.0217  37.1510  38.1826 S.o2           1 <1>                0.0000
      3 O3          30.9616  36.1253  38.4719 O.2            1 <1>                0.0000
      4 O4          30.2997  38.5089  38.4958 O.2            1 <1>                0.0000
      5 C5          28.6238  36.7527  39.1784 C.ar           1 <1>                0.0000
      6 C6          28.7895  36.0168  40.3370 C.ar           1 <1>                0.0000
      7 C7          27.6961  35.7008  41.1224 C.ar           1 <1>                0.0000
      8 C8          26.4304  36.1219  40.7496 C.ar           1 <1>                0.0000
      9 O9          25.3541  35.8122  41.5214 O.3            1 <1>                0.0000
     10 C10         26.2625  36.8640  39.5826 C.ar           1 <1>                0.0000
     11 N11         24.9858  37.2923  39.2009 N.pl3          1 <1>                0.0000
     12 C12         27.3647  37.1817  38.8024 C.ar           1 <1>                0.0000
     13 H13         29.0733  35.9828  36.3031 H              1 <1>                0.0000
     14 H14         28.5970  37.6977  36.3203 H              1 <1>                0.0000
     15 H15         30.2298  37.2329  35.7854 H              1 <1>                0.0000
     16 H16         29.7758  35.6875  40.6293 H              1 <1>                0.0000
     17 H17         27.8291  35.1251  42.0264 H              1 <1>                0.0000
     18 H18         27.2380  37.7567  37.8971 H              1 <1>                0.0000
     19 H19         25.5713  35.2975  42.3107 H              1 <1>                0.0000
     20 H20         24.2164  37.0725  39.7493 H              1 <1>                0.0000
     21 H21         24.8703  37.8089  38.3881 H              1 <1>                0.0000
@<TRIPOS>BOND
    1    1    2 1     
    2    1   13 1     
    3    1   14 1     
    4    1   15 1     
    5    2    3 2     
    6    2    4 2     
    7    2    5 1     
    8    5    6 ar    
    9    5   12 ar    
   10    6    7 ar    
   11    6   16 1     
   12    7    8 ar    
   13    7   17 1     
   14    8    9 1     
   15    8   10 ar    
   16    9   19 1     
   17   10   11 1     
   18   10   12 ar    
   19   11   20 1     
   20   11   21 1     
   21   12   18 1     
@<TRIPOS>SUBSTRUCTURE
      1 ****           1
@<TRIPOS>SET
DONOR_HYDROGENS      STATIC     ATOMS    <user>   **** ""
3 19 20 21
ATOM$RED        STATIC     ATOMS    COLORGROUP SYSTEM
3 19 20 21
@<TRIPOS>COMMENT
> <Gold.Version>
2022.2.0

> <Gold.Id.Protein>
1qkm|1qkm_protein|mol2

> <Gold.Protein.RotatedTorsions>
[  496  491  490  487 ] final  115.94 input  -89.99 | X-H torsion

> <Gold.Protein.ActiveResidues>
 MET295  LEU298  THR299  LEU301  ALA302  GLU305  TRP335  MET336  LEU339  MET340 
 GLY342  LEU343  ARG346  PHE356  ILE373  ILE376  PHE377  LEU380  LYS471  GLY472 
 MET473  HIS475  LEU476  LEU477  ASN478  MET479  VAL484  VAL487 

> <Gold.Protein.RotatedAtoms>
   37.0485   32.9397   41.6772 H   0  0  0  0  0  0  0  0  0  0  0  0  # atno 496  bound_to 491 

> <Gold.Score>
     Score     S(PLP)   S(hbond)     S(cho)   S(metal)  DE(clash)   DE(tors)     intcor
     34.86     -29.67       1.80       0.00       0.00       0.00       1.14       2.08

> <Gold.PLP.Fitness>
34.8576

> <Gold.PLP.PLP>
-29.6743

> <Gold.PLP.part.hbond>
-2.0837

> <Gold.PLP.part.metal>
0.0000

> <Gold.PLP.part.buried>
2.6470

> <Gold.PLP.part.nonpolar>
-30.2097

> <Gold.PLP.part.repulsive>
0.1944

> <Gold.PLP.ligand.clash>
0.0000

> <Gold.PLP.ligand.torsion>
1.1447

> <Gold.PLP.Chemscore.Hbond>
1.7977

> <Gold.PLP.Chemscore.CHOScore>
0.0000

> <Gold.PLP.Chemscore.Metal>
0.0000

> <Gold.Chemscore.Hbonds>
donor molecule, donor type, donor heavy atom, donor atom, acceptor molecule, acceptor atom, score
      L1  H     9    19       P1   582  1.00
      L1  H    11    20       P1  1131  0.80

> <Gold.PLP.Chemscore.Internal.Correction>
2.0796

