#       Name:                EN300-78665_i001
#       Creating user name   aseyller
#       Creation time:       Fri Apr 21 15:14:33 2023


#       File generated by GOLD software.
#

@<TRIPOS>MOLECULE
EN300-78665_i001|amine_1|mol2|884|dock5
    21    21     1
SMALL
USER_CHARGES


@<TRIPOS>ATOM
      1 C1          32.3297  37.2987  37.3016 C.3            1 <1>                0.0000
      2 S2          30.7949  37.9389  36.5768 S.o2           1 <1>                0.0000
      3 O3          30.7748  39.3589  36.6258 O.2            1 <1>                0.0000
      4 O4          30.4810  37.2427  35.3785 O.2            1 <1>                0.0000
      5 C5          29.5362  37.4473  37.7075 C.ar           1 <1>                0.0000
      6 C6          28.2071  37.6720  37.4003 C.ar           1 <1>                0.0000
      7 C7          27.2149  37.2888  38.2840 C.ar           1 <1>                0.0000
      8 C8          27.5509  36.6775  39.4806 C.ar           1 <1>                0.0000
      9 O9          26.5760  36.2997  40.3504 O.3            1 <1>                0.0000
     10 C10         28.8899  36.4502  39.7907 C.ar           1 <1>                0.0000
     11 N11         29.2355  35.8328  40.9983 N.pl3          1 <1>                0.0000
     12 C12         29.8797  36.8326  38.8970 C.ar           1 <1>                0.0000
     13 H13         32.4757  37.7370  38.2888 H              1 <1>                0.0000
     14 H14         32.2643  36.2144  37.3915 H              1 <1>                0.0000
     15 H15         33.1711  37.5600  36.6599 H              1 <1>                0.0000
     16 H16         27.9431  38.1486  36.4678 H              1 <1>                0.0000
     17 H17         26.1777  37.4666  38.0412 H              1 <1>                0.0000
     18 H18         30.9186  36.6579  39.1343 H              1 <1>                0.0000
     19 H19         25.7014  36.2124  39.9471 H              1 <1>                0.0000
     20 H20         28.5423  35.5626  41.6207 H              1 <1>                0.0000
     21 H21         30.1682  35.6751  41.2130 H              1 <1>                0.0000
@<TRIPOS>BOND
    1    1    2 1     
    2    1   13 1     
    3    1   14 1     
    4    1   15 1     
    5    2    3 2     
    6    2    4 2     
    7    2    5 1     
    8    5    6 ar    
    9    5   12 ar    
   10    6    7 ar    
   11    6   16 1     
   12    7    8 ar    
   13    7   17 1     
   14    8    9 1     
   15    8   10 ar    
   16    9   19 1     
   17   10   11 1     
   18   10   12 ar    
   19   11   20 1     
   20   11   21 1     
   21   12   18 1     
@<TRIPOS>SUBSTRUCTURE
      1 ****           1
@<TRIPOS>SET
DONOR_HYDROGENS      STATIC     ATOMS    <user>   **** ""
3 19 20 21
ATOM$RED        STATIC     ATOMS    COLORGROUP SYSTEM
3 19 20 21
@<TRIPOS>COMMENT
> <Gold.Version>
2022.2.0

> <Gold.Id.Protein>
1qkm|1qkm_protein|mol2

> <Gold.Protein.RotatedTorsions>
[  496  491  490  487 ] final    5.50 input  -89.99 | X-H torsion

> <Gold.Protein.ActiveResidues>
 MET295  LEU298  THR299  LEU301  ALA302  GLU305  TRP335  MET336  LEU339  MET340 
 GLY342  LEU343  ARG346  PHE356  ILE373  ILE376  PHE377  LEU380  LYS471  GLY472 
 MET473  HIS475  LEU476  LEU477  ASN478  MET479  VAL484  VAL487 

> <Gold.Protein.RotatedAtoms>
   36.2652   34.1337   42.2782 H   0  0  0  0  0  0  0  0  0  0  0  0  # atno 496  bound_to 491 

> <Gold.Score>
     Score     S(PLP)   S(hbond)     S(cho)   S(metal)  DE(clash)   DE(tors)     intcor
     34.65     -31.99       1.00       0.00       0.00       0.00       1.21       2.08

> <Gold.PLP.Fitness>
34.6518

> <Gold.PLP.PLP>
-31.9894

> <Gold.PLP.part.hbond>
-1.0000

> <Gold.PLP.part.metal>
0.0000

> <Gold.PLP.part.buried>
-4.2257

> <Gold.PLP.part.nonpolar>
-27.4031

> <Gold.PLP.part.repulsive>
0.1066

> <Gold.PLP.ligand.clash>
0.0000

> <Gold.PLP.ligand.torsion>
1.2086

> <Gold.PLP.Chemscore.Hbond>
1.0000

> <Gold.PLP.Chemscore.CHOScore>
0.0000

> <Gold.PLP.Chemscore.Metal>
0.0000

> <Gold.Chemscore.Hbonds>
donor molecule, donor type, donor heavy atom, donor atom, acceptor molecule, acceptor atom, score
      L1  H    11    21       P1   470  1.00

> <Gold.PLP.Chemscore.Internal.Correction>
2.0796

