#       Name:                EN300-78665_i001
#       Creating user name   aseyller
#       Creation time:       Fri Apr 21 15:14:39 2023


#       File generated by GOLD software.
#

@<TRIPOS>MOLECULE
EN300-78665_i001|amine_1|mol2|884|dock20
    21    21     1
SMALL
USER_CHARGES


@<TRIPOS>ATOM
      1 C1          30.5964  40.3026  36.1035 C.3            1 <1>                0.0000
      2 S2          30.9469  38.5700  35.6963 S.o2           1 <1>                0.0000
      3 O3          30.0550  38.1033  34.6933 O.2            1 <1>                0.0000
      4 O4          32.3475  38.3566  35.5879 O.2            1 <1>                0.0000
      5 C5          30.4816  37.6759  37.1416 C.ar           1 <1>                0.0000
      6 C6          29.2986  37.9796  37.7894 C.ar           1 <1>                0.0000
      7 C7          28.9284  37.2816  38.9243 C.ar           1 <1>                0.0000
      8 C8          29.7432  36.2748  39.4152 C.ar           1 <1>                0.0000
      9 O9          29.3801  35.5873  40.5311 O.3            1 <1>                0.0000
     10 C10         30.9352  35.9679  38.7627 C.ar           1 <1>                0.0000
     11 N11         31.7625  34.9514  39.2541 N.pl3          1 <1>                0.0000
     12 C12         31.2975  36.6687  37.6217 C.ar           1 <1>                0.0000
     13 H13         29.5359  40.4157  36.3282 H              1 <1>                0.0000
     14 H14         31.1853  40.5980  36.9719 H              1 <1>                0.0000
     15 H15         30.8576  40.9352  35.2552 H              1 <1>                0.0000
     16 H16         28.6620  38.7644  37.4082 H              1 <1>                0.0000
     17 H17         28.0040  37.5220  39.4283 H              1 <1>                0.0000
     18 H18         32.2209  36.4333  37.1136 H              1 <1>                0.0000
     19 H19         30.0863  35.4989  41.1858 H              1 <1>                0.0000
     20 H20         31.5062  34.4597  40.0500 H              1 <1>                0.0000
     21 H21         32.5922  34.7387  38.7989 H              1 <1>                0.0000
@<TRIPOS>BOND
    1    1    2 1     
    2    1   13 1     
    3    1   14 1     
    4    1   15 1     
    5    2    3 2     
    6    2    4 2     
    7    2    5 1     
    8    5    6 ar    
    9    5   12 ar    
   10    6    7 ar    
   11    6   16 1     
   12    7    8 ar    
   13    7   17 1     
   14    8    9 1     
   15    8   10 ar    
   16    9   19 1     
   17   10   11 1     
   18   10   12 ar    
   19   11   20 1     
   20   11   21 1     
   21   12   18 1     
@<TRIPOS>SUBSTRUCTURE
      1 ****           1
@<TRIPOS>SET
DONOR_HYDROGENS      STATIC     ATOMS    <user>   **** ""
3 19 20 21
ATOM$RED        STATIC     ATOMS    COLORGROUP SYSTEM
3 19 20 21
@<TRIPOS>COMMENT
> <Gold.Version>
2022.2.0

> <Gold.Id.Protein>
1qkm|1qkm_protein|mol2

> <Gold.Protein.RotatedTorsions>
[  496  491  490  487 ] final   77.98 input  -89.99 | X-H torsion

> <Gold.Protein.ActiveResidues>
 MET295  LEU298  THR299  LEU301  ALA302  GLU305  TRP335  MET336  LEU339  MET340 
 GLY342  LEU343  ARG346  PHE356  ILE373  ILE376  PHE377  LEU380  LYS471  GLY472 
 MET473  HIS475  LEU476  LEU477  ASN478  MET479  VAL484  VAL487 

> <Gold.Protein.RotatedAtoms>
   36.7094   33.1181   42.1564 H   0  0  0  0  0  0  0  0  0  0  0  0  # atno 496  bound_to 491 

> <Gold.Score>
     Score     S(PLP)   S(hbond)     S(cho)   S(metal)  DE(clash)   DE(tors)     intcor
     34.16     -30.19       1.38       0.00       0.00       0.00       1.13       2.08

> <Gold.PLP.Fitness>
34.1576

> <Gold.PLP.PLP>
-30.1865

> <Gold.PLP.part.hbond>
-2.0000

> <Gold.PLP.part.metal>
0.0000

> <Gold.PLP.part.buried>
-1.4984

> <Gold.PLP.part.nonpolar>
-26.7674

> <Gold.PLP.part.repulsive>
0.1705

> <Gold.PLP.ligand.clash>
0.0000

> <Gold.PLP.ligand.torsion>
1.1283

> <Gold.PLP.Chemscore.Hbond>
1.3827

> <Gold.PLP.Chemscore.CHOScore>
0.0000

> <Gold.PLP.Chemscore.Metal>
0.0000

> <Gold.Chemscore.Hbonds>
donor molecule, donor type, donor heavy atom, donor atom, acceptor molecule, acceptor atom, score
      L1  H     9    19       P1   470  1.00
      L1  H    11    20       P1   470  0.38

> <Gold.PLP.Chemscore.Internal.Correction>
2.0796

