#       Name:                EN300-78665_i001
#       Creating user name   aseyller
#       Creation time:       Fri Apr 21 15:14:38 2023


#       File generated by GOLD software.
#

@<TRIPOS>MOLECULE
EN300-78665_i001|amine_1|mol2|884|dock18
    21    21     1
SMALL
USER_CHARGES


@<TRIPOS>ATOM
      1 C1          30.8865  40.2551  36.7043 C.3            1 <1>                0.0000
      2 S2          29.7825  38.8905  36.2465 S.o2           1 <1>                0.0000
      3 O3          28.4703  39.1241  36.7392 O.2            1 <1>                0.0000
      4 O4          30.0001  38.5045  34.8964 O.2            1 <1>                0.0000
      5 C5          30.3630  37.5200  37.1894 C.ar           1 <1>                0.0000
      6 C6          31.3988  36.7409  36.7080 C.ar           1 <1>                0.0000
      7 C7          31.8583  35.6637  37.4433 C.ar           1 <1>                0.0000
      8 C8          31.2813  35.3627  38.6660 C.ar           1 <1>                0.0000
      9 O9          31.7327  34.3037  39.3905 O.3            1 <1>                0.0000
     10 C10         30.2380  36.1475  39.1521 C.ar           1 <1>                0.0000
     11 N11         29.6512  35.8481  40.3870 N.pl3          1 <1>                0.0000
     12 C12         29.7857  37.2297  38.4113 C.ar           1 <1>                0.0000
     13 H13         30.8128  40.4381  37.7763 H              1 <1>                0.0000
     14 H14         31.9135  39.9923  36.4505 H              1 <1>                0.0000
     15 H15         30.5969  41.1546  36.1613 H              1 <1>                0.0000
     16 H16         31.8499  36.9740  35.7548 H              1 <1>                0.0000
     17 H17         32.6670  35.0567  37.0640 H              1 <1>                0.0000
     18 H18         28.9771  37.8401  38.7852 H              1 <1>                0.0000
     19 H19         31.7240  34.4490  40.3465 H              1 <1>                0.0000
     20 H20         29.9708  35.0933  40.9056 H              1 <1>                0.0000
     21 H21         28.9248  36.3954  40.7243 H              1 <1>                0.0000
@<TRIPOS>BOND
    1    1    2 1     
    2    1   13 1     
    3    1   14 1     
    4    1   15 1     
    5    2    3 2     
    6    2    4 2     
    7    2    5 1     
    8    5    6 ar    
    9    5   12 ar    
   10    6    7 ar    
   11    6   16 1     
   12    7    8 ar    
   13    7   17 1     
   14    8    9 1     
   15    8   10 ar    
   16    9   19 1     
   17   10   11 1     
   18   10   12 ar    
   19   11   20 1     
   20   11   21 1     
   21   12   18 1     
@<TRIPOS>SUBSTRUCTURE
      1 ****           1
@<TRIPOS>SET
DONOR_HYDROGENS      STATIC     ATOMS    <user>   **** ""
3 19 20 21
ATOM$RED        STATIC     ATOMS    COLORGROUP SYSTEM
3 19 20 21
@<TRIPOS>COMMENT
> <Gold.Version>
2022.2.0

> <Gold.Id.Protein>
1qkm|1qkm_protein|mol2

> <Gold.Protein.RotatedTorsions>
[  496  491  490  487 ] final -140.91 input  -89.99 | X-H torsion

> <Gold.Protein.ActiveResidues>
 MET295  LEU298  THR299  LEU301  ALA302  GLU305  TRP335  MET336  LEU339  MET340 
 GLY342  LEU343  ARG346  PHE356  ILE373  ILE376  PHE377  LEU380  LYS471  GLY472 
 MET473  HIS475  LEU476  LEU477  ASN478  MET479  VAL484  VAL487 

> <Gold.Protein.RotatedAtoms>
   37.1796   34.0602   40.7227 H   0  0  0  0  0  0  0  0  0  0  0  0  # atno 496  bound_to 491 

> <Gold.Score>
     Score     S(PLP)   S(hbond)     S(cho)   S(metal)  DE(clash)   DE(tors)     intcor
     34.71     -30.84       1.29       0.00       0.00       0.00       1.04       2.08

> <Gold.PLP.Fitness>
34.7059

> <Gold.PLP.PLP>
-30.8423

> <Gold.PLP.part.hbond>
-2.0000

> <Gold.PLP.part.metal>
0.0000

> <Gold.PLP.part.buried>
-2.0566

> <Gold.PLP.part.nonpolar>
-26.3770

> <Gold.PLP.part.repulsive>
0.0683

> <Gold.PLP.ligand.clash>
0.0000

> <Gold.PLP.ligand.torsion>
1.0409

> <Gold.PLP.Chemscore.Hbond>
1.2886

> <Gold.PLP.Chemscore.CHOScore>
0.0000

> <Gold.PLP.Chemscore.Metal>
0.0000

> <Gold.Chemscore.Hbonds>
donor molecule, donor type, donor heavy atom, donor atom, acceptor molecule, acceptor atom, score
      L1  H     9    19       P1   470  1.00
      L1  H    11    20       P1   470  0.29

> <Gold.PLP.Chemscore.Internal.Correction>
2.0796

