#       Name:                EN300-78665_i001
#       Creating user name   aseyller
#       Creation time:       Fri Apr 21 15:14:36 2023


#       File generated by GOLD software.
#

@<TRIPOS>MOLECULE
EN300-78665_i001|amine_1|mol2|884|dock13
    21    21     1
SMALL
USER_CHARGES


@<TRIPOS>ATOM
      1 C1          29.9796  39.1877  37.5204 C.3            1 <1>                0.0000
      2 S2          29.0705  37.6551  37.1815 S.o2           1 <1>                0.0000
      3 O3          28.0077  37.8969  36.2698 O.2            1 <1>                0.0000
      4 O4          29.9713  36.5736  36.9863 O.2            1 <1>                0.0000
      5 C5          28.2620  37.2783  38.7010 C.ar           1 <1>                0.0000
      6 C6          26.8874  37.3908  38.7973 C.ar           1 <1>                0.0000
      7 C7          26.2474  37.0969  39.9873 C.ar           1 <1>                0.0000
      8 C8          26.9832  36.6879  41.0872 C.ar           1 <1>                0.0000
      9 O9          26.3549  36.3981  42.2582 O.3            1 <1>                0.0000
     10 C10         28.3683  36.5737  40.9909 C.ar           1 <1>                0.0000
     11 N11         29.1170  36.1609  42.0991 N.pl3          1 <1>                0.0000
     12 C12         29.0030  36.8652  39.7924 C.ar           1 <1>                0.0000
     13 H13         29.2782  39.9691  37.8129 H              1 <1>                0.0000
     14 H14         30.6910  39.0170  38.3284 H              1 <1>                0.0000
     15 H15         30.5159  39.4979  36.6237 H              1 <1>                0.0000
     16 H16         26.3119  37.7096  37.9407 H              1 <1>                0.0000
     17 H17         25.1735  37.1867  40.0593 H              1 <1>                0.0000
     18 H18         30.0765  36.7778  39.7144 H              1 <1>                0.0000
     19 H19         26.5926  35.5374  42.6294 H              1 <1>                0.0000
     20 H20         28.6716  35.9539  42.9355 H              1 <1>                0.0000
     21 H21         30.0814  36.0818  42.0307 H              1 <1>                0.0000
@<TRIPOS>BOND
    1    1    2 1     
    2    1   13 1     
    3    1   14 1     
    4    1   15 1     
    5    2    3 2     
    6    2    4 2     
    7    2    5 1     
    8    5    6 ar    
    9    5   12 ar    
   10    6    7 ar    
   11    6   16 1     
   12    7    8 ar    
   13    7   17 1     
   14    8    9 1     
   15    8   10 ar    
   16    9   19 1     
   17   10   11 1     
   18   10   12 ar    
   19   11   20 1     
   20   11   21 1     
   21   12   18 1     
@<TRIPOS>SUBSTRUCTURE
      1 ****           1
@<TRIPOS>SET
DONOR_HYDROGENS      STATIC     ATOMS    <user>   **** ""
3 19 20 21
ATOM$RED        STATIC     ATOMS    COLORGROUP SYSTEM
3 19 20 21
@<TRIPOS>COMMENT
> <Gold.Version>
2022.2.0

> <Gold.Id.Protein>
1qkm|1qkm_protein|mol2

> <Gold.Protein.RotatedTorsions>
[  496  491  490  487 ] final   28.57 input  -89.99 | X-H torsion

> <Gold.Protein.ActiveResidues>
 MET295  LEU298  THR299  LEU301  ALA302  GLU305  TRP335  MET336  LEU339  MET340 
 GLY342  LEU343  ARG346  PHE356  ILE373  ILE376  PHE377  LEU380  LYS471  GLY472 
 MET473  HIS475  LEU476  LEU477  ASN478  MET479  VAL484  VAL487 

> <Gold.Protein.RotatedAtoms>
   36.3392   33.7777   42.3787 H   0  0  0  0  0  0  0  0  0  0  0  0  # atno 496  bound_to 491 

> <Gold.Score>
     Score     S(PLP)   S(hbond)     S(cho)   S(metal)  DE(clash)   DE(tors)     intcor
     35.90     -30.64       1.77       0.00       0.00       0.00       1.06       2.08

> <Gold.PLP.Fitness>
35.9046

> <Gold.PLP.PLP>
-30.6416

> <Gold.PLP.part.hbond>
-1.5934

> <Gold.PLP.part.metal>
0.0000

> <Gold.PLP.part.buried>
0.5301

> <Gold.PLP.part.nonpolar>
-28.5434

> <Gold.PLP.part.repulsive>
0.0822

> <Gold.PLP.ligand.clash>
0.0000

> <Gold.PLP.ligand.torsion>
1.0603

> <Gold.PLP.Chemscore.Hbond>
1.7680

> <Gold.PLP.Chemscore.CHOScore>
0.0000

> <Gold.PLP.Chemscore.Metal>
0.0000

> <Gold.Chemscore.Hbonds>
donor molecule, donor type, donor heavy atom, donor atom, acceptor molecule, acceptor atom, score
      L1  H     9    19       P1   582  0.77
      L1  H    11    21       P1   470  1.00

> <Gold.PLP.Chemscore.Internal.Correction>
2.0796

