#       Name:                EN300-78665_i001
#       Creating user name   aseyller
#       Creation time:       Fri Apr 21 15:14:36 2023


#       File generated by GOLD software.
#

@<TRIPOS>MOLECULE
EN300-78665_i001|amine_1|mol2|884|dock12
    21    21     1
SMALL
USER_CHARGES


@<TRIPOS>ATOM
      1 C1          31.1789  35.0009  38.0740 C.3            1 <1>                0.0000
      2 S2          30.3241  36.5150  37.5572 S.o2           1 <1>                0.0000
      3 O3          31.0143  37.6635  38.0304 O.2            1 <1>                0.0000
      4 O4          29.9101  36.4160  36.2015 O.2            1 <1>                0.0000
      5 C5          28.8189  36.5046  38.4731 C.ar           1 <1>                0.0000
      6 C6          27.7207  37.2005  38.0029 C.ar           1 <1>                0.0000
      7 C7          26.5369  37.1964  38.7176 C.ar           1 <1>                0.0000
      8 C8          26.4485  36.4936  39.9078 C.ar           1 <1>                0.0000
      9 O9          25.2846  36.4883  40.6115 O.3            1 <1>                0.0000
     10 C10         27.5545  35.7916  40.3820 C.ar           1 <1>                0.0000
     11 N11         27.4710  35.0796  41.5841 N.pl3          1 <1>                0.0000
     12 C12         28.7372  35.7960  39.6571 C.ar           1 <1>                0.0000
     13 H13         31.3564  35.0327  39.1489 H              1 <1>                0.0000
     14 H14         30.5620  34.1351  37.8331 H              1 <1>                0.0000
     15 H15         32.1319  34.9248  37.5504 H              1 <1>                0.0000
     16 H16         27.7878  37.7492  37.0750 H              1 <1>                0.0000
     17 H17         25.6812  37.7417  38.3478 H              1 <1>                0.0000
     18 H18         29.5965  35.2530  40.0219 H              1 <1>                0.0000
     19 H19         24.4957  36.6187  40.0677 H              1 <1>                0.0000
     20 H20         26.6423  35.0744  42.0882 H              1 <1>                0.0000
     21 H21         28.2418  34.5913  41.9132 H              1 <1>                0.0000
@<TRIPOS>BOND
    1    1    2 1     
    2    1   13 1     
    3    1   14 1     
    4    1   15 1     
    5    2    3 2     
    6    2    4 2     
    7    2    5 1     
    8    5    6 ar    
    9    5   12 ar    
   10    6    7 ar    
   11    6   16 1     
   12    7    8 ar    
   13    7   17 1     
   14    8    9 1     
   15    8   10 ar    
   16    9   19 1     
   17   10   11 1     
   18   10   12 ar    
   19   11   20 1     
   20   11   21 1     
   21   12   18 1     
@<TRIPOS>SUBSTRUCTURE
      1 ****           1
@<TRIPOS>SET
DONOR_HYDROGENS      STATIC     ATOMS    <user>   **** ""
3 19 20 21
ATOM$RED        STATIC     ATOMS    COLORGROUP SYSTEM
3 19 20 21
@<TRIPOS>COMMENT
> <Gold.Version>
2022.2.0

> <Gold.Id.Protein>
1qkm|1qkm_protein|mol2

> <Gold.Protein.RotatedTorsions>
[  496  491  490  487 ] final  -68.08 input  -89.99 | X-H torsion

> <Gold.Protein.ActiveResidues>
 MET295  LEU298  THR299  LEU301  ALA302  GLU305  TRP335  MET336  LEU339  MET340 
 GLY342  LEU343  ARG346  PHE356  ILE373  ILE376  PHE377  LEU380  LYS471  GLY472 
 MET473  HIS475  LEU476  LEU477  ASN478  MET479  VAL484  VAL487 

> <Gold.Protein.RotatedAtoms>
   36.5621   34.7347   41.3689 H   0  0  0  0  0  0  0  0  0  0  0  0  # atno 496  bound_to 491 

> <Gold.Score>
     Score     S(PLP)   S(hbond)     S(cho)   S(metal)  DE(clash)   DE(tors)     intcor
     33.72     -29.68       1.44       0.00       0.00       0.00       1.18       2.08

> <Gold.PLP.Fitness>
33.7184

> <Gold.PLP.PLP>
-29.6804

> <Gold.PLP.part.hbond>
-2.0000

> <Gold.PLP.part.metal>
0.0000

> <Gold.PLP.part.buried>
-0.7645

> <Gold.PLP.part.nonpolar>
-29.5439

> <Gold.PLP.part.repulsive>
0.0746

> <Gold.PLP.ligand.clash>
0.0000

> <Gold.PLP.ligand.torsion>
1.1823

> <Gold.PLP.Chemscore.Hbond>
1.4410

> <Gold.PLP.Chemscore.CHOScore>
0.0000

> <Gold.PLP.Chemscore.Metal>
0.0000

> <Gold.Chemscore.Hbonds>
donor molecule, donor type, donor heavy atom, donor atom, acceptor molecule, acceptor atom, score
      L1  H     9    19       P1  1131  0.69
      L1  H    11    20       P1   582  0.75

> <Gold.PLP.Chemscore.Internal.Correction>
2.0796

