#       Name:                EN300-78665_i001
#       Creating user name   aseyller
#       Creation time:       Fri Apr 21 15:14:32 2023


#       File generated by GOLD software.
#

@<TRIPOS>MOLECULE
EN300-78665_i001|amine_1|mol2|884|dock3
    21    21     1
SMALL
USER_CHARGES


@<TRIPOS>ATOM
      1 C1          29.0692  37.3023  36.2448 C.3            1 <1>                0.0000
      2 S2          29.8214  37.0291  37.8727 S.o2           1 <1>                0.0000
      3 O3          30.5402  35.8035  37.8904 O.2            1 <1>                0.0000
      4 O4          30.4071  38.2289  38.3591 O.2            1 <1>                0.0000
      5 C5          28.4538  36.7464  38.9471 C.ar           1 <1>                0.0000
      6 C6          27.1691  37.0169  38.5140 C.ar           1 <1>                0.0000
      7 C7          26.0919  36.7974  39.3529 C.ar           1 <1>                0.0000
      8 C8          26.2981  36.3048  40.6309 C.ar           1 <1>                0.0000
      9 O9          25.2394  36.0881  41.4569 O.3            1 <1>                0.0000
     10 C10         27.5923  36.0315  41.0680 C.ar           1 <1>                0.0000
     11 N11         27.8067  35.5335  42.3584 N.pl3          1 <1>                0.0000
     12 C12         28.6676  36.2492  40.2190 C.ar           1 <1>                0.0000
     13 H13         28.4997  36.4194  35.9550 H              1 <1>                0.0000
     14 H14         28.4038  38.1644  36.2922 H              1 <1>                0.0000
     15 H15         29.8519  37.4875  35.5093 H              1 <1>                0.0000
     16 H16         27.0063  37.4011  37.5178 H              1 <1>                0.0000
     17 H17         25.0897  37.0106  39.0116 H              1 <1>                0.0000
     18 H18         29.6722  36.0384  40.5547 H              1 <1>                0.0000
     19 H19         25.4633  35.6061  42.2648 H              1 <1>                0.0000
     20 H20         27.0536  35.3783  42.9497 H              1 <1>                0.0000
     21 H21         28.7083  35.3436  42.6614 H              1 <1>                0.0000
@<TRIPOS>BOND
    1    1    2 1     
    2    1   13 1     
    3    1   14 1     
    4    1   15 1     
    5    2    3 2     
    6    2    4 2     
    7    2    5 1     
    8    5    6 ar    
    9    5   12 ar    
   10    6    7 ar    
   11    6   16 1     
   12    7    8 ar    
   13    7   17 1     
   14    8    9 1     
   15    8   10 ar    
   16    9   19 1     
   17   10   11 1     
   18   10   12 ar    
   19   11   20 1     
   20   11   21 1     
   21   12   18 1     
@<TRIPOS>SUBSTRUCTURE
      1 ****           1
@<TRIPOS>SET
DONOR_HYDROGENS      STATIC     ATOMS    <user>   **** ""
3 19 20 21
ATOM$RED        STATIC     ATOMS    COLORGROUP SYSTEM
3 19 20 21
@<TRIPOS>COMMENT
> <Gold.Version>
2022.2.0

> <Gold.Id.Protein>
1qkm|1qkm_protein|mol2

> <Gold.Protein.RotatedTorsions>
[  496  491  490  487 ] final  156.18 input  -89.99 | X-H torsion

> <Gold.Protein.ActiveResidues>
 MET295  LEU298  THR299  LEU301  ALA302  GLU305  TRP335  MET336  LEU339  MET340 
 GLY342  LEU343  ARG346  PHE356  ILE373  ILE376  PHE377  LEU380  LYS471  GLY472 
 MET473  HIS475  LEU476  LEU477  ASN478  MET479  VAL484  VAL487 

> <Gold.Protein.RotatedAtoms>
   37.2855   33.1642   41.1165 H   0  0  0  0  0  0  0  0  0  0  0  0  # atno 496  bound_to 491 

> <Gold.Score>
     Score     S(PLP)   S(hbond)     S(cho)   S(metal)  DE(clash)   DE(tors)     intcor
     39.04     -33.40       1.99       0.00       0.00       0.00       1.20       2.08

> <Gold.PLP.Fitness>
39.0440

> <Gold.PLP.PLP>
-33.3959

> <Gold.PLP.part.hbond>
-2.2111

> <Gold.PLP.part.metal>
0.0000

> <Gold.PLP.part.buried>
-1.9083

> <Gold.PLP.part.nonpolar>
-29.2799

> <Gold.PLP.part.repulsive>
0.1061

> <Gold.PLP.ligand.clash>
0.0000

> <Gold.PLP.ligand.torsion>
1.2026

> <Gold.PLP.Chemscore.Hbond>
1.9913

> <Gold.PLP.Chemscore.CHOScore>
0.0000

> <Gold.PLP.Chemscore.Metal>
0.0000

> <Gold.Chemscore.Hbonds>
donor molecule, donor type, donor heavy atom, donor atom, acceptor molecule, acceptor atom, score
      L1  H     9    19       P1   582  1.00
      L1  H    11    20       P1   582  0.99

> <Gold.PLP.Chemscore.Internal.Correction>
2.0796

