#       Name:                EN300-78665_i001
#       Creating user name   aseyller
#       Creation time:       Fri Apr 21 15:14:33 2023


#       File generated by GOLD software.
#

@<TRIPOS>MOLECULE
EN300-78665_i001|amine_1|mol2|884|dock4
    21    21     1
SMALL
USER_CHARGES


@<TRIPOS>ATOM
      1 C1          31.6878  37.1375  37.8284 C.3            1 <1>                0.0000
      2 S2          30.0779  37.7148  37.2240 S.o2           1 <1>                0.0000
      3 O3          30.0011  39.1324  37.2863 O.2            1 <1>                0.0000
      4 O4          29.7062  37.0121  36.0462 O.2            1 <1>                0.0000
      5 C5          28.9282  37.1635  38.4400 C.ar           1 <1>                0.0000
      6 C6          27.5702  37.2711  38.2041 C.ar           1 <1>                0.0000
      7 C7          26.6631  36.8405  39.1549 C.ar           1 <1>                0.0000
      8 C8          27.1138  36.2992  40.3475 C.ar           1 <1>                0.0000
      9 O9          26.2227  35.8749  41.2834 O.3            1 <1>                0.0000
     10 C10         28.4820  36.1899  40.5858 C.ar           1 <1>                0.0000
     11 N11         28.9433  35.6437  41.7891 N.pl3          1 <1>                0.0000
     12 C12         29.3861  36.6191  39.6252 C.ar           1 <1>                0.0000
     13 H13         31.8876  37.5763  38.8059 H              1 <1>                0.0000
     14 H14         31.6754  36.0508  37.9137 H              1 <1>                0.0000
     15 H15         32.4677  37.4381  37.1289 H              1 <1>                0.0000
     16 H16         27.2168  37.6930  37.2748 H              1 <1>                0.0000
     17 H17         25.6030  36.9268  38.9677 H              1 <1>                0.0000
     18 H18         30.4475  36.5359  39.8068 H              1 <1>                0.0000
     19 H19         26.6320  35.5467  42.0957 H              1 <1>                0.0000
     20 H20         28.3100  35.3406  42.4584 H              1 <1>                0.0000
     21 H21         29.8963  35.5682  41.9538 H              1 <1>                0.0000
@<TRIPOS>BOND
    1    1    2 1     
    2    1   13 1     
    3    1   14 1     
    4    1   15 1     
    5    2    3 2     
    6    2    4 2     
    7    2    5 1     
    8    5    6 ar    
    9    5   12 ar    
   10    6    7 ar    
   11    6   16 1     
   12    7    8 ar    
   13    7   17 1     
   14    8    9 1     
   15    8   10 ar    
   16    9   19 1     
   17   10   11 1     
   18   10   12 ar    
   19   11   20 1     
   20   11   21 1     
   21   12   18 1     
@<TRIPOS>SUBSTRUCTURE
      1 ****           1
@<TRIPOS>SET
DONOR_HYDROGENS      STATIC     ATOMS    <user>   **** ""
3 19 20 21
ATOM$RED        STATIC     ATOMS    COLORGROUP SYSTEM
3 19 20 21
@<TRIPOS>COMMENT
> <Gold.Version>
2022.2.0

> <Gold.Id.Protein>
1qkm|1qkm_protein|mol2

> <Gold.Protein.RotatedTorsions>
[  496  491  490  487 ] final -123.29 input  -89.99 | X-H torsion

> <Gold.Protein.ActiveResidues>
 MET295  LEU298  THR299  LEU301  ALA302  GLU305  TRP335  MET336  LEU339  MET340 
 GLY342  LEU343  ARG346  PHE356  ILE373  ILE376  PHE377  LEU380  LYS471  GLY472 
 MET473  HIS475  LEU476  LEU477  ASN478  MET479  VAL484  VAL487 

> <Gold.Protein.RotatedAtoms>
   37.0529   34.3130   40.7812 H   0  0  0  0  0  0  0  0  0  0  0  0  # atno 496  bound_to 491 

> <Gold.Score>
     Score     S(PLP)   S(hbond)     S(cho)   S(metal)  DE(clash)   DE(tors)     intcor
     40.37     -35.42       1.76       0.00       0.00       0.00       1.21       2.08

> <Gold.PLP.Fitness>
40.3683

> <Gold.PLP.PLP>
-35.4170

> <Gold.PLP.part.hbond>
-2.0000

> <Gold.PLP.part.metal>
0.0000

> <Gold.PLP.part.buried>
-5.2687

> <Gold.PLP.part.nonpolar>
-28.5965

> <Gold.PLP.part.repulsive>
0.0935

> <Gold.PLP.ligand.clash>
0.0000

> <Gold.PLP.ligand.torsion>
1.2061

> <Gold.PLP.Chemscore.Hbond>
1.7613

> <Gold.PLP.Chemscore.CHOScore>
0.0000

> <Gold.PLP.Chemscore.Metal>
0.0000

> <Gold.Chemscore.Hbonds>
donor molecule, donor type, donor heavy atom, donor atom, acceptor molecule, acceptor atom, score
      L1  H     9    19       P1   582  0.76
      L1  H    11    21       P1   470  1.00

> <Gold.PLP.Chemscore.Internal.Correction>
2.0796

