#       Name:                EN300-78665_i001
#       Creating user name   aseyller
#       Creation time:       Fri Apr 21 15:14:32 2023


#       File generated by GOLD software.
#

@<TRIPOS>MOLECULE
EN300-78665_i001|amine_1|mol2|884|dock2
    21    21     1
SMALL
USER_CHARGES


@<TRIPOS>ATOM
      1 C1          31.0066  36.2506  38.4963 C.3            1 <1>                0.0000
      2 S2          29.6727  37.3169  37.8849 S.o2           1 <1>                0.0000
      3 O3          29.9832  38.6846  38.1135 O.2            1 <1>                0.0000
      4 O4          29.2206  36.8709  36.6137 O.2            1 <1>                0.0000
      5 C5          28.3196  36.9921  38.9658 C.ar           1 <1>                0.0000
      6 C6          27.0295  37.2824  38.5624 C.ar           1 <1>                0.0000
      7 C7          25.9637  37.0301  39.4065 C.ar           1 <1>                0.0000
      8 C8          26.1866  36.4846  40.6600 C.ar           1 <1>                0.0000
      9 O9          25.1392  36.2355  41.4911 O.3            1 <1>                0.0000
     10 C10         27.4862  36.1912  41.0671 C.ar           1 <1>                0.0000
     11 N11         27.7175  35.6398  42.3326 N.pl3          1 <1>                0.0000
     12 C12         28.5501  36.4422  40.2129 C.ar           1 <1>                0.0000
     13 H13         31.2380  36.5137  39.5284 H              1 <1>                0.0000
     14 H14         30.6894  35.2088  38.4495 H              1 <1>                0.0000
     15 H15         31.8940  36.3883  37.8786 H              1 <1>                0.0000
     16 H16         26.8537  37.7079  37.5854 H              1 <1>                0.0000
     17 H17         24.9573  37.2588  39.0885 H              1 <1>                0.0000
     18 H18         29.5588  36.2160  40.5254 H              1 <1>                0.0000
     19 H19         25.3896  35.8104  42.3228 H              1 <1>                0.0000
     20 H20         26.9724  35.4615  42.9275 H              1 <1>                0.0000
     21 H21         28.6229  35.4360  42.6149 H              1 <1>                0.0000
@<TRIPOS>BOND
    1    1    2 1     
    2    1   13 1     
    3    1   14 1     
    4    1   15 1     
    5    2    3 2     
    6    2    4 2     
    7    2    5 1     
    8    5    6 ar    
    9    5   12 ar    
   10    6    7 ar    
   11    6   16 1     
   12    7    8 ar    
   13    7   17 1     
   14    8    9 1     
   15    8   10 ar    
   16    9   19 1     
   17   10   11 1     
   18   10   12 ar    
   19   11   20 1     
   20   11   21 1     
   21   12   18 1     
@<TRIPOS>SUBSTRUCTURE
      1 ****           1
@<TRIPOS>SET
DONOR_HYDROGENS      STATIC     ATOMS    <user>   **** ""
3 19 20 21
ATOM$RED        STATIC     ATOMS    COLORGROUP SYSTEM
3 19 20 21
@<TRIPOS>COMMENT
> <Gold.Version>
2022.2.0

> <Gold.Id.Protein>
1qkm|1qkm_protein|mol2

> <Gold.Protein.RotatedTorsions>
[  496  491  490  487 ] final  -60.56 input  -89.99 | X-H torsion

> <Gold.Protein.ActiveResidues>
 MET295  LEU298  THR299  LEU301  ALA302  GLU305  TRP335  MET336  LEU339  MET340 
 GLY342  LEU343  ARG346  PHE356  ILE373  ILE376  PHE377  LEU380  LYS471  GLY472 
 MET473  HIS475  LEU476  LEU477  ASN478  MET479  VAL484  VAL487 

> <Gold.Protein.RotatedAtoms>
   36.5013   34.7328   41.4766 H   0  0  0  0  0  0  0  0  0  0  0  0  # atno 496  bound_to 491 

> <Gold.Score>
     Score     S(PLP)   S(hbond)     S(cho)   S(metal)  DE(clash)   DE(tors)     intcor
     42.47     -36.77       2.00       0.00       0.00       0.00       1.19       2.08

> <Gold.PLP.Fitness>
42.4712

> <Gold.PLP.PLP>
-36.7688

> <Gold.PLP.part.hbond>
-2.9031

> <Gold.PLP.part.metal>
0.0000

> <Gold.PLP.part.buried>
-2.0460

> <Gold.PLP.part.nonpolar>
-31.8964

> <Gold.PLP.part.repulsive>
0.0700

> <Gold.PLP.ligand.clash>
0.0000

> <Gold.PLP.ligand.torsion>
1.1886

> <Gold.PLP.Chemscore.Hbond>
2.0000

> <Gold.PLP.Chemscore.CHOScore>
0.0000

> <Gold.PLP.Chemscore.Metal>
0.0000

> <Gold.Chemscore.Hbonds>
donor molecule, donor type, donor heavy atom, donor atom, acceptor molecule, acceptor atom, score
      L1  H     9    19       P1   582  1.00
      L1  H    11    20       P1   582  1.00

> <Gold.PLP.Chemscore.Internal.Correction>
2.0796

