#       Name:                EN300-78665_i001
#       Creating user name   aseyller
#       Creation time:       Fri Apr 21 15:14:34 2023


#       File generated by GOLD software.
#

@<TRIPOS>MOLECULE
EN300-78665_i001|amine_1|mol2|884|dock7
    21    21     1
SMALL
USER_CHARGES


@<TRIPOS>ATOM
      1 C1          29.9867  39.5939  36.8906 C.3            1 <1>                0.0000
      2 S2          30.3342  37.8158  36.9796 S.o2           1 <1>                0.0000
      3 O3          29.9143  37.1654  35.7880 O.2            1 <1>                0.0000
      4 O4          31.6273  37.5870  37.5224 O.2            1 <1>                0.0000
      5 C5          29.2315  37.2136  38.2149 C.ar           1 <1>                0.0000
      6 C6          27.8729  37.1672  37.9632 C.ar           1 <1>                0.0000
      7 C7          27.0026  36.6960  38.9290 C.ar           1 <1>                0.0000
      8 C8          27.4909  36.2683  40.1525 C.ar           1 <1>                0.0000
      9 O9          26.6361  35.8042  41.1031 O.3            1 <1>                0.0000
     10 C10         28.8599  36.3142  40.4067 C.ar           1 <1>                0.0000
     11 N11         29.3591  35.8832  41.6413 N.pl3          1 <1>                0.0000
     12 C12         29.7275  36.7832  39.4312 C.ar           1 <1>                0.0000
     13 H13         28.9435  39.7469  36.6144 H              1 <1>                0.0000
     14 H14         30.1759  40.0502  37.8623 H              1 <1>                0.0000
     15 H15         30.6319  40.0533  36.1418 H              1 <1>                0.0000
     16 H16         27.4902  37.5004  37.0098 H              1 <1>                0.0000
     17 H17         25.9418  36.6619  38.7293 H              1 <1>                0.0000
     18 H18         30.7893  36.8202  39.6251 H              1 <1>                0.0000
     19 H19         26.4481  34.8581  41.0348 H              1 <1>                0.0000
     20 H20         28.7517  35.5521  42.3212 H              1 <1>                0.0000
     21 H21         30.3125  35.9157  41.8171 H              1 <1>                0.0000
@<TRIPOS>BOND
    1    1    2 1     
    2    1   13 1     
    3    1   14 1     
    4    1   15 1     
    5    2    3 2     
    6    2    4 2     
    7    2    5 1     
    8    5    6 ar    
    9    5   12 ar    
   10    6    7 ar    
   11    6   16 1     
   12    7    8 ar    
   13    7   17 1     
   14    8    9 1     
   15    8   10 ar    
   16    9   19 1     
   17   10   11 1     
   18   10   12 ar    
   19   11   20 1     
   20   11   21 1     
   21   12   18 1     
@<TRIPOS>SUBSTRUCTURE
      1 ****           1
@<TRIPOS>SET
DONOR_HYDROGENS      STATIC     ATOMS    <user>   **** ""
3 19 20 21
ATOM$RED        STATIC     ATOMS    COLORGROUP SYSTEM
3 19 20 21
@<TRIPOS>COMMENT
> <Gold.Version>
2022.2.0

> <Gold.Id.Protein>
1qkm|1qkm_protein|mol2

> <Gold.Protein.RotatedTorsions>
[  496  491  490  487 ] final  -80.36 input  -89.99 | X-H torsion

> <Gold.Protein.ActiveResidues>
 MET295  LEU298  THR299  LEU301  ALA302  GLU305  TRP335  MET336  LEU339  MET340 
 GLY342  LEU343  ARG346  PHE356  ILE373  ILE376  PHE377  LEU380  LYS471  GLY472 
 MET473  HIS475  LEU476  LEU477  ASN478  MET479  VAL484  VAL487 

> <Gold.Protein.RotatedAtoms>
   36.6692   34.7047   41.2005 H   0  0  0  0  0  0  0  0  0  0  0  0  # atno 496  bound_to 491 

> <Gold.Score>
     Score     S(PLP)   S(hbond)     S(cho)   S(metal)  DE(clash)   DE(tors)     intcor
     38.39     -35.43       1.00       0.00       0.00       0.00       1.06       2.08

> <Gold.PLP.Fitness>
38.3890

> <Gold.PLP.PLP>
-35.4297

> <Gold.PLP.part.hbond>
-2.0000

> <Gold.PLP.part.metal>
0.0000

> <Gold.PLP.part.buried>
-3.3726

> <Gold.PLP.part.nonpolar>
-30.5463

> <Gold.PLP.part.repulsive>
0.1092

> <Gold.PLP.ligand.clash>
0.0000

> <Gold.PLP.ligand.torsion>
1.0601

> <Gold.PLP.Chemscore.Hbond>
1.0000

> <Gold.PLP.Chemscore.CHOScore>
0.0000

> <Gold.PLP.Chemscore.Metal>
0.0000

> <Gold.Chemscore.Hbonds>
donor molecule, donor type, donor heavy atom, donor atom, acceptor molecule, acceptor atom, score
      L1  H    11    21       P1   470  1.00

> <Gold.PLP.Chemscore.Internal.Correction>
2.0796

