#       Name:                EN300-78665_i001
#       Creating user name   aseyller
#       Creation time:       Fri Apr 21 15:14:35 2023


#       File generated by GOLD software.
#

@<TRIPOS>MOLECULE
EN300-78665_i001|amine_1|mol2|884|dock10
    21    21     1
SMALL
USER_CHARGES


@<TRIPOS>ATOM
      1 C1          29.6449  36.7004  36.5759 C.3            1 <1>                0.0000
      2 S2          29.1934  38.0946  37.6449 S.o2           1 <1>                0.0000
      3 O3          30.3020  38.4929  38.4397 O.2            1 <1>                0.0000
      4 O4          28.4293  39.0501  36.9223 O.2            1 <1>                0.0000
      5 C5          28.0532  37.4109  38.8012 C.ar           1 <1>                0.0000
      6 C6          26.6934  37.5410  38.5881 C.ar           1 <1>                0.0000
      7 C7          25.7937  37.0069  39.4923 C.ar           1 <1>                0.0000
      8 C8          26.2537  36.3388  40.6150 C.ar           1 <1>                0.0000
      9 O9          25.3699  35.8126  41.5049 O.3            1 <1>                0.0000
     10 C10         27.6237  36.2067  40.8302 C.ar           1 <1>                0.0000
     11 N11         28.0943  35.5325  41.9629 N.pl3          1 <1>                0.0000
     12 C12         28.5203  36.7406  39.9161 C.ar           1 <1>                0.0000
     13 H13         30.0985  35.9131  37.1777 H              1 <1>                0.0000
     14 H14         28.7511  36.3139  36.0860 H              1 <1>                0.0000
     15 H15         30.3561  37.0365  35.8214 H              1 <1>                0.0000
     16 H16         26.3328  38.0617  37.7133 H              1 <1>                0.0000
     17 H17         24.7321  37.1112  39.3232 H              1 <1>                0.0000
     18 H18         29.5830  36.6400  40.0800 H              1 <1>                0.0000
     19 H19         25.7853  35.3372  42.2374 H              1 <1>                0.0000
     20 H20         27.4662  35.1566  42.5994 H              1 <1>                0.0000
     21 H21         29.0485  35.4413  42.1115 H              1 <1>                0.0000
@<TRIPOS>BOND
    1    1    2 1     
    2    1   13 1     
    3    1   14 1     
    4    1   15 1     
    5    2    3 2     
    6    2    4 2     
    7    2    5 1     
    8    5    6 ar    
    9    5   12 ar    
   10    6    7 ar    
   11    6   16 1     
   12    7    8 ar    
   13    7   17 1     
   14    8    9 1     
   15    8   10 ar    
   16    9   19 1     
   17   10   11 1     
   18   10   12 ar    
   19   11   20 1     
   20   11   21 1     
   21   12   18 1     
@<TRIPOS>SUBSTRUCTURE
      1 ****           1
@<TRIPOS>SET
DONOR_HYDROGENS      STATIC     ATOMS    <user>   **** ""
3 19 20 21
ATOM$RED        STATIC     ATOMS    COLORGROUP SYSTEM
3 19 20 21
@<TRIPOS>COMMENT
> <Gold.Version>
2022.2.0

> <Gold.Id.Protein>
1qkm|1qkm_protein|mol2

> <Gold.Protein.RotatedTorsions>
[  496  491  490  487 ] final   71.07 input  -89.99 | X-H torsion

> <Gold.Protein.ActiveResidues>
 MET295  LEU298  THR299  LEU301  ALA302  GLU305  TRP335  MET336  LEU339  MET340 
 GLY342  LEU343  ARG346  PHE356  ILE373  ILE376  PHE377  LEU380  LYS471  GLY472 
 MET473  HIS475  LEU476  LEU477  ASN478  MET479  VAL484  VAL487 

> <Gold.Protein.RotatedAtoms>
   36.6469   33.1881   42.2207 H   0  0  0  0  0  0  0  0  0  0  0  0  # atno 496  bound_to 491 

> <Gold.Score>
     Score     S(PLP)   S(hbond)     S(cho)   S(metal)  DE(clash)   DE(tors)     intcor
     38.00     -32.01       2.00       0.00       0.00       0.00       1.04       2.08

> <Gold.PLP.Fitness>
38.0038

> <Gold.PLP.PLP>
-32.0089

> <Gold.PLP.part.hbond>
-2.0676

> <Gold.PLP.part.metal>
0.0000

> <Gold.PLP.part.buried>
-2.0676

> <Gold.PLP.part.nonpolar>
-27.5207

> <Gold.PLP.part.repulsive>
0.0795

> <Gold.PLP.ligand.clash>
0.0000

> <Gold.PLP.ligand.torsion>
1.0423

> <Gold.PLP.Chemscore.Hbond>
2.0000

> <Gold.PLP.Chemscore.CHOScore>
0.0000

> <Gold.PLP.Chemscore.Metal>
0.0000

> <Gold.Chemscore.Hbonds>
donor molecule, donor type, donor heavy atom, donor atom, acceptor molecule, acceptor atom, score
      L1  H     9    19       P1   582  1.00
      L1  H    11    20       P1   582  1.00

> <Gold.PLP.Chemscore.Internal.Correction>
2.0796

