#       Name:                EN300-78665_i001
#       Creating user name   aseyller
#       Creation time:       Fri Apr 21 15:14:36 2023


#       File generated by GOLD software.
#

@<TRIPOS>MOLECULE
EN300-78665_i001|amine_1|mol2|884|dock14
    21    21     1
SMALL
USER_CHARGES


@<TRIPOS>ATOM
      1 C1          31.7890  35.2293  37.6081 C.3            1 <1>                0.0000
      2 S2          30.7479  36.6975  37.3824 S.o2           1 <1>                0.0000
      3 O3          31.4339  37.8659  37.8108 O.2            1 <1>                0.0000
      4 O4          30.0907  36.6541  36.1233 O.2            1 <1>                0.0000
      5 C5          29.4496  36.5007  38.5572 C.ar           1 <1>                0.0000
      6 C6          28.1320  36.6174  38.1550 C.ar           1 <1>                0.0000
      7 C7          27.1088  36.4644  39.0725 C.ar           1 <1>                0.0000
      8 C8          27.4022  36.1930  40.3987 C.ar           1 <1>                0.0000
      9 O9          26.3968  36.0419  41.3021 O.3            1 <1>                0.0000
     10 C10         28.7296  36.0748  40.8048 C.ar           1 <1>                0.0000
     11 N11         29.0320  35.8006  42.1435 N.pl3          1 <1>                0.0000
     12 C12         29.7506  36.2243  39.8777 C.ar           1 <1>                0.0000
     13 H13         32.1657  35.2047  38.6306 H              1 <1>                0.0000
     14 H14         31.1993  34.3329  37.4165 H              1 <1>                0.0000
     15 H15         32.6275  35.2681  36.9128 H              1 <1>                0.0000
     16 H16         27.9012  36.8291  37.1213 H              1 <1>                0.0000
     17 H17         26.0807  36.5570  38.7551 H              1 <1>                0.0000
     18 H18         30.7807  36.1333  40.1891 H              1 <1>                0.0000
     19 H19         26.6315  35.4942  42.0638 H              1 <1>                0.0000
     20 H20         28.3170  35.6926  42.7901 H              1 <1>                0.0000
     21 H21         29.9567  35.7185  42.4250 H              1 <1>                0.0000
@<TRIPOS>BOND
    1    1    2 1     
    2    1   13 1     
    3    1   14 1     
    4    1   15 1     
    5    2    3 2     
    6    2    4 2     
    7    2    5 1     
    8    5    6 ar    
    9    5   12 ar    
   10    6    7 ar    
   11    6   16 1     
   12    7    8 ar    
   13    7   17 1     
   14    8    9 1     
   15    8   10 ar    
   16    9   19 1     
   17   10   11 1     
   18   10   12 ar    
   19   11   20 1     
   20   11   21 1     
   21   12   18 1     
@<TRIPOS>SUBSTRUCTURE
      1 ****           1
@<TRIPOS>SET
DONOR_HYDROGENS      STATIC     ATOMS    <user>   **** ""
3 19 20 21
ATOM$RED        STATIC     ATOMS    COLORGROUP SYSTEM
3 19 20 21
@<TRIPOS>COMMENT
> <Gold.Version>
2022.2.0

> <Gold.Id.Protein>
1qkm|1qkm_protein|mol2

> <Gold.Protein.RotatedTorsions>
[  496  491  490  487 ] final   -4.96 input  -89.99 | X-H torsion

> <Gold.Protein.ActiveResidues>
 MET295  LEU298  THR299  LEU301  ALA302  GLU305  TRP335  MET336  LEU339  MET340 
 GLY342  LEU343  ARG346  PHE356  ILE373  ILE376  PHE377  LEU380  LYS471  GLY472 
 MET473  HIS475  LEU476  LEU477  ASN478  MET479  VAL484  VAL487 

> <Gold.Protein.RotatedAtoms>
   36.2590   34.2827   42.1926 H   0  0  0  0  0  0  0  0  0  0  0  0  # atno 496  bound_to 491 

> <Gold.Score>
     Score     S(PLP)   S(hbond)     S(cho)   S(metal)  DE(clash)   DE(tors)     intcor
     36.16     -30.35       1.98       0.00       0.00       0.00       1.11       2.08

> <Gold.PLP.Fitness>
36.1613

> <Gold.PLP.PLP>
-30.3458

> <Gold.PLP.part.hbond>
-2.0000

> <Gold.PLP.part.metal>
0.0000

> <Gold.PLP.part.buried>
-0.1937

> <Gold.PLP.part.nonpolar>
-29.1778

> <Gold.PLP.part.repulsive>
0.1160

> <Gold.PLP.ligand.clash>
0.0000

> <Gold.PLP.ligand.torsion>
1.1070

> <Gold.PLP.Chemscore.Hbond>
1.9833

> <Gold.PLP.Chemscore.CHOScore>
0.0000

> <Gold.PLP.Chemscore.Metal>
0.0000

> <Gold.Chemscore.Hbonds>
donor molecule, donor type, donor heavy atom, donor atom, acceptor molecule, acceptor atom, score
      L1  H     9    19       P1   582  0.98
      L1  H    11    21       P1   470  1.00

> <Gold.PLP.Chemscore.Internal.Correction>
2.0796

