#       Name:                EN300-78665_i001
#       Creating user name   aseyller
#       Creation time:       Fri Apr 21 15:14:37 2023


#       File generated by GOLD software.
#

@<TRIPOS>MOLECULE
EN300-78665_i001|amine_1|mol2|884|dock16
    21    21     1
SMALL
USER_CHARGES


@<TRIPOS>ATOM
      1 C1          31.4455  36.4043  35.3929 C.3            1 <1>                0.0000
      2 S2          31.8900  36.0934  37.1238 S.o2           1 <1>                0.0000
      3 O3          32.1806  34.7169  37.3245 O.2            1 <1>                0.0000
      4 O4          32.7661  37.1044  37.6030 O.2            1 <1>                0.0000
      5 C5          30.3936  36.3562  38.0161 C.ar           1 <1>                0.0000
      6 C6          29.2775  36.8445  37.3624 C.ar           1 <1>                0.0000
      7 C7          28.1005  37.0532  38.0576 C.ar           1 <1>                0.0000
      8 C8          28.0368  36.7725  39.4124 C.ar           1 <1>                0.0000
      9 O9          26.8796  36.9769  40.0973 O.3            1 <1>                0.0000
     10 C10         29.1608  36.2799  40.0718 C.ar           1 <1>                0.0000
     11 N11         29.1024  35.9945  41.4408 N.pl3          1 <1>                0.0000
     12 C12         30.3367  36.0681  39.3668 C.ar           1 <1>                0.0000
     13 H13         30.6627  35.7096  35.0884 H              1 <1>                0.0000
     14 H14         31.0839  37.4273  35.2888 H              1 <1>                0.0000
     15 H15         32.3225  36.2629  34.7614 H              1 <1>                0.0000
     16 H16         29.3253  37.0640  36.3060 H              1 <1>                0.0000
     17 H17         27.2308  37.4355  37.5440 H              1 <1>                0.0000
     18 H18         31.2099  35.6864  39.8749 H              1 <1>                0.0000
     19 H19         26.1061  37.1085  39.5320 H              1 <1>                0.0000
     20 H20         28.2785  36.1396  41.9317 H              1 <1>                0.0000
     21 H21         29.8858  35.6515  41.8987 H              1 <1>                0.0000
@<TRIPOS>BOND
    1    1    2 1     
    2    1   13 1     
    3    1   14 1     
    4    1   15 1     
    5    2    3 2     
    6    2    4 2     
    7    2    5 1     
    8    5    6 ar    
    9    5   12 ar    
   10    6    7 ar    
   11    6   16 1     
   12    7    8 ar    
   13    7   17 1     
   14    8    9 1     
   15    8   10 ar    
   16    9   19 1     
   17   10   11 1     
   18   10   12 ar    
   19   11   20 1     
   20   11   21 1     
   21   12   18 1     
@<TRIPOS>SUBSTRUCTURE
      1 ****           1
@<TRIPOS>SET
DONOR_HYDROGENS      STATIC     ATOMS    <user>   **** ""
3 19 20 21
ATOM$RED        STATIC     ATOMS    COLORGROUP SYSTEM
3 19 20 21
@<TRIPOS>COMMENT
> <Gold.Version>
2022.2.0

> <Gold.Id.Protein>
1qkm|1qkm_protein|mol2

> <Gold.Protein.RotatedTorsions>
[  496  491  490  487 ] final   45.06 input  -89.99 | X-H torsion

> <Gold.Protein.ActiveResidues>
 MET295  LEU298  THR299  LEU301  ALA302  GLU305  TRP335  MET336  LEU339  MET340 
 GLY342  LEU343  ARG346  PHE356  ILE373  ILE376  PHE377  LEU380  LYS471  GLY472 
 MET473  HIS475  LEU476  LEU477  ASN478  MET479  VAL484  VAL487 

> <Gold.Protein.RotatedAtoms>
   36.4373   33.5259   42.3696 H   0  0  0  0  0  0  0  0  0  0  0  0  # atno 496  bound_to 491 

> <Gold.Score>
     Score     S(PLP)   S(hbond)     S(cho)   S(metal)  DE(clash)   DE(tors)     intcor
     31.88     -29.21       1.00       0.00       0.00       0.00       1.21       2.08

> <Gold.PLP.Fitness>
31.8784

> <Gold.PLP.PLP>
-29.2149

> <Gold.PLP.part.hbond>
-1.0000

> <Gold.PLP.part.metal>
0.0000

> <Gold.PLP.part.buried>
-3.6395

> <Gold.PLP.part.nonpolar>
-24.8518

> <Gold.PLP.part.repulsive>
0.0808

> <Gold.PLP.ligand.clash>
0.0000

> <Gold.PLP.ligand.torsion>
1.2080

> <Gold.PLP.Chemscore.Hbond>
1.0000

> <Gold.PLP.Chemscore.CHOScore>
0.0000

> <Gold.PLP.Chemscore.Metal>
0.0000

> <Gold.Chemscore.Hbonds>
donor molecule, donor type, donor heavy atom, donor atom, acceptor molecule, acceptor atom, score
      L1  H    11    21       P1   470  1.00

> <Gold.PLP.Chemscore.Internal.Correction>
2.0796

