#       Name:                EN300-78665_i001
#       Creating user name   aseyller
#       Creation time:       Fri Apr 21 15:14:35 2023


#       File generated by GOLD software.
#

@<TRIPOS>MOLECULE
EN300-78665_i001|amine_1|mol2|884|dock11
    21    21     1
SMALL
USER_CHARGES


@<TRIPOS>ATOM
      1 C1          32.8007  35.6628  37.2693 C.3            1 <1>                0.0000
      2 S2          31.6871  36.8935  36.5374 S.o2           1 <1>                0.0000
      3 O3          32.2178  38.2023  36.6948 O.2            1 <1>                0.0000
      4 O4          31.2064  36.4446  35.2778 O.2            1 <1>                0.0000
      5 C5          30.2650  36.8734  37.5775 C.ar           1 <1>                0.0000
      6 C6          29.0488  37.3161  37.0915 C.ar           1 <1>                0.0000
      7 C7          27.9293  37.3031  37.9032 C.ar           1 <1>                0.0000
      8 C8          28.0241  36.8454  39.2070 C.ar           1 <1>                0.0000
      9 O9          26.9238  36.8317  40.0063 O.3            1 <1>                0.0000
     10 C10         29.2492  36.3986  39.6974 C.ar           1 <1>                0.0000
     11 N11         29.3509  35.9349  41.0141 N.pl3          1 <1>                0.0000
     12 C12         30.3668  36.4097  38.8757 C.ar           1 <1>                0.0000
     13 H13         33.0405  35.9527  38.2923 H              1 <1>                0.0000
     14 H14         32.3128  34.6881  37.2729 H              1 <1>                0.0000
     15 H15         33.7176  35.6080  36.6827 H              1 <1>                0.0000
     16 H16         28.9729  37.6735  36.0751 H              1 <1>                0.0000
     17 H17         26.9810  37.6504  37.5205 H              1 <1>                0.0000
     18 H18         31.3179  36.0641  39.2527 H              1 <1>                0.0000
     19 H19         26.2919  36.1313  39.7936 H              1 <1>                0.0000
     20 H20         28.5679  35.9244  41.5865 H              1 <1>                0.0000
     21 H21         30.2045  35.6242  41.3543 H              1 <1>                0.0000
@<TRIPOS>BOND
    1    1    2 1     
    2    1   13 1     
    3    1   14 1     
    4    1   15 1     
    5    2    3 2     
    6    2    4 2     
    7    2    5 1     
    8    5    6 ar    
    9    5   12 ar    
   10    6    7 ar    
   11    6   16 1     
   12    7    8 ar    
   13    7   17 1     
   14    8    9 1     
   15    8   10 ar    
   16    9   19 1     
   17   10   11 1     
   18   10   12 ar    
   19   11   20 1     
   20   11   21 1     
   21   12   18 1     
@<TRIPOS>SUBSTRUCTURE
      1 ****           1
@<TRIPOS>SET
DONOR_HYDROGENS      STATIC     ATOMS    <user>   **** ""
3 19 20 21
ATOM$RED        STATIC     ATOMS    COLORGROUP SYSTEM
3 19 20 21
@<TRIPOS>COMMENT
> <Gold.Version>
2022.2.0

> <Gold.Id.Protein>
1qkm|1qkm_protein|mol2

> <Gold.Protein.RotatedTorsions>
[  496  491  490  487 ] final -148.02 input  -89.99 | X-H torsion

> <Gold.Protein.ActiveResidues>
 MET295  LEU298  THR299  LEU301  ALA302  GLU305  TRP335  MET336  LEU339  MET340 
 GLY342  LEU343  ARG346  PHE356  ILE373  ILE376  PHE377  LEU380  LYS471  GLY472 
 MET473  HIS475  LEU476  LEU477  ASN478  MET479  VAL484  VAL487 

> <Gold.Protein.RotatedAtoms>
   37.2209   33.9507   40.7210 H   0  0  0  0  0  0  0  0  0  0  0  0  # atno 496  bound_to 491 

> <Gold.Score>
     Score     S(PLP)   S(hbond)     S(cho)   S(metal)  DE(clash)   DE(tors)     intcor
     32.81     -30.10       1.00       0.00       0.00       0.00       1.19       2.08

> <Gold.PLP.Fitness>
32.8054

> <Gold.PLP.PLP>
-30.0960

> <Gold.PLP.part.hbond>
-1.0000

> <Gold.PLP.part.metal>
0.0000

> <Gold.PLP.part.buried>
-3.0121

> <Gold.PLP.part.nonpolar>
-26.0448

> <Gold.PLP.part.repulsive>
0.1447

> <Gold.PLP.ligand.clash>
0.0000

> <Gold.PLP.ligand.torsion>
1.1851

> <Gold.PLP.Chemscore.Hbond>
1.0000

> <Gold.PLP.Chemscore.CHOScore>
0.0000

> <Gold.PLP.Chemscore.Metal>
0.0000

> <Gold.Chemscore.Hbonds>
donor molecule, donor type, donor heavy atom, donor atom, acceptor molecule, acceptor atom, score
      L1  H    11    21       P1   470  1.00

> <Gold.PLP.Chemscore.Internal.Correction>
2.0796

