#       Name:                EN300-78665_i001
#       Creating user name   aseyller
#       Creation time:       Fri Apr 21 15:14:34 2023


#       File generated by GOLD software.
#

@<TRIPOS>MOLECULE
EN300-78665_i001|amine_1|mol2|884|dock6
    21    21     1
SMALL
USER_CHARGES


@<TRIPOS>ATOM
      1 C1          29.7082  37.0008  35.8417 C.3            1 <1>                0.0000
      2 S2          30.1616  37.8087  37.4012 S.o2           1 <1>                0.0000
      3 O3          31.3945  37.2965  37.8880 O.2            1 <1>                0.0000
      4 O4          29.9295  39.2084  37.3237 O.2            1 <1>                0.0000
      5 C5          28.9646  37.2331  38.5589 C.ar           1 <1>                0.0000
      6 C6          27.6174  37.4107  38.3039 C.ar           1 <1>                0.0000
      7 C7          26.6734  36.9615  39.2090 C.ar           1 <1>                0.0000
      8 C8          27.0760  36.3311  40.3747 C.ar           1 <1>                0.0000
      9 O9          26.1485  35.8883  41.2656 O.3            1 <1>                0.0000
     10 C10         28.4333  36.1512  40.6322 C.ar           1 <1>                0.0000
     11 N11         28.8460  35.5149  41.8086 N.pl3          1 <1>                0.0000
     12 C12         29.3745  36.5999  39.7172 C.ar           1 <1>                0.0000
     13 H13         29.7507  35.9190  35.9672 H              1 <1>                0.0000
     14 H14         28.6966  37.2945  35.5612 H              1 <1>                0.0000
     15 H15         30.4044  37.3036  35.0597 H              1 <1>                0.0000
     16 H16         27.3015  37.9021  37.3955 H              1 <1>                0.0000
     17 H17         25.6219  37.1025  39.0070 H              1 <1>                0.0000
     18 H18         30.4274  36.4621  39.9138 H              1 <1>                0.0000
     19 H19         26.5265  35.4860  42.0596 H              1 <1>                0.0000
     20 H20         28.1867  35.1985  42.4458 H              1 <1>                0.0000
     21 H21         29.7914  35.3903  41.9867 H              1 <1>                0.0000
@<TRIPOS>BOND
    1    1    2 1     
    2    1   13 1     
    3    1   14 1     
    4    1   15 1     
    5    2    3 2     
    6    2    4 2     
    7    2    5 1     
    8    5    6 ar    
    9    5   12 ar    
   10    6    7 ar    
   11    6   16 1     
   12    7    8 ar    
   13    7   17 1     
   14    8    9 1     
   15    8   10 ar    
   16    9   19 1     
   17   10   11 1     
   18   10   12 ar    
   19   11   20 1     
   20   11   21 1     
   21   12   18 1     
@<TRIPOS>SUBSTRUCTURE
      1 ****           1
@<TRIPOS>SET
DONOR_HYDROGENS      STATIC     ATOMS    <user>   **** ""
3 19 20 21
ATOM$RED        STATIC     ATOMS    COLORGROUP SYSTEM
3 19 20 21
@<TRIPOS>COMMENT
> <Gold.Version>
2022.2.0

> <Gold.Id.Protein>
1qkm|1qkm_protein|mol2

> <Gold.Protein.RotatedTorsions>
[  496  491  490  487 ] final  106.54 input  -89.99 | X-H torsion

> <Gold.Protein.ActiveResidues>
 MET295  LEU298  THR299  LEU301  ALA302  GLU305  TRP335  MET336  LEU339  MET340 
 GLY342  LEU343  ARG346  PHE356  ILE373  ILE376  PHE377  LEU380  LYS471  GLY472 
 MET473  HIS475  LEU476  LEU477  ASN478  MET479  VAL484  VAL487 

> <Gold.Protein.RotatedAtoms>
   36.9695   32.9487   41.8099 H   0  0  0  0  0  0  0  0  0  0  0  0  # atno 496  bound_to 491 

> <Gold.Score>
     Score     S(PLP)   S(hbond)     S(cho)   S(metal)  DE(clash)   DE(tors)     intcor
     39.84     -34.34       1.87       0.00       0.00       0.00       1.09       2.08

> <Gold.PLP.Fitness>
39.8430

> <Gold.PLP.PLP>
-34.3357

> <Gold.PLP.part.hbond>
-2.0000

> <Gold.PLP.part.metal>
0.0000

> <Gold.PLP.part.buried>
-4.2222

> <Gold.PLP.part.nonpolar>
-28.2643

> <Gold.PLP.part.repulsive>
0.1091

> <Gold.PLP.ligand.clash>
0.0000

> <Gold.PLP.ligand.torsion>
1.0930

> <Gold.PLP.Chemscore.Hbond>
1.8713

> <Gold.PLP.Chemscore.CHOScore>
0.0000

> <Gold.PLP.Chemscore.Metal>
0.0000

> <Gold.Chemscore.Hbonds>
donor molecule, donor type, donor heavy atom, donor atom, acceptor molecule, acceptor atom, score
      L1  H     9    19       P1   582  0.88
      L1  H    11    21       P1   470  0.99

> <Gold.PLP.Chemscore.Internal.Correction>
2.0796

