#       Name:                EN300-78665_i001
#       Creating user name   aseyller
#       Creation time:       Fri Apr 21 15:14:34 2023


#       File generated by GOLD software.
#

@<TRIPOS>MOLECULE
EN300-78665_i001|amine_1|mol2|884|dock8
    21    21     1
SMALL
USER_CHARGES


@<TRIPOS>ATOM
      1 C1          30.4559  37.2127  35.1104 C.3            1 <1>                0.0000
      2 S2          30.8072  37.9966  36.7080 S.o2           1 <1>                0.0000
      3 O3          31.9903  37.4555  37.2795 O.2            1 <1>                0.0000
      4 O4          30.6082  39.4014  36.6288 O.2            1 <1>                0.0000
      5 C5          29.5164  37.4339  37.7672 C.ar           1 <1>                0.0000
      6 C6          28.1961  37.5860  37.3863 C.ar           1 <1>                0.0000
      7 C7          27.1788  37.1468  38.2135 C.ar           1 <1>                0.0000
      8 C8          27.4808  36.5521  39.4274 C.ar           1 <1>                0.0000
      9 O9          26.4812  36.1192  40.2418 O.3            1 <1>                0.0000
     10 C10         28.8110  36.3979  39.8118 C.ar           1 <1>                0.0000
     11 N11         29.1222  35.7977  41.0373 N.pl3          1 <1>                0.0000
     12 C12         29.8264  36.8363  38.9744 C.ar           1 <1>                0.0000
     13 H13         30.4683  36.1291  35.2268 H              1 <1>                0.0000
     14 H14         29.4738  37.5290  34.7587 H              1 <1>                0.0000
     15 H15         31.2141  37.5091  34.3857 H              1 <1>                0.0000
     16 H16         27.9586  38.0496  36.4401 H              1 <1>                0.0000
     17 H17         26.1485  37.2678  37.9132 H              1 <1>                0.0000
     18 H18         30.8586  36.7184  39.2694 H              1 <1>                0.0000
     19 H19         25.8001  36.7833  40.4156 H              1 <1>                0.0000
     20 H20         28.4113  35.4884  41.6203 H              1 <1>                0.0000
     21 H21         30.0488  35.6910  41.3038 H              1 <1>                0.0000
@<TRIPOS>BOND
    1    1    2 1     
    2    1   13 1     
    3    1   14 1     
    4    1   15 1     
    5    2    3 2     
    6    2    4 2     
    7    2    5 1     
    8    5    6 ar    
    9    5   12 ar    
   10    6    7 ar    
   11    6   16 1     
   12    7    8 ar    
   13    7   17 1     
   14    8    9 1     
   15    8   10 ar    
   16    9   19 1     
   17   10   11 1     
   18   10   12 ar    
   19   11   20 1     
   20   11   21 1     
   21   12   18 1     
@<TRIPOS>SUBSTRUCTURE
      1 ****           1
@<TRIPOS>SET
DONOR_HYDROGENS      STATIC     ATOMS    <user>   **** ""
3 19 20 21
ATOM$RED        STATIC     ATOMS    COLORGROUP SYSTEM
3 19 20 21
@<TRIPOS>COMMENT
> <Gold.Version>
2022.2.0

> <Gold.Id.Protein>
1qkm|1qkm_protein|mol2

> <Gold.Protein.RotatedTorsions>
[  496  491  490  487 ] final  -67.95 input  -89.99 | X-H torsion

> <Gold.Protein.ActiveResidues>
 MET295  LEU298  THR299  LEU301  ALA302  GLU305  TRP335  MET336  LEU339  MET340 
 GLY342  LEU343  ARG346  PHE356  ILE373  ILE376  PHE377  LEU380  LYS471  GLY472 
 MET473  HIS475  LEU476  LEU477  ASN478  MET479  VAL484  VAL487 

> <Gold.Protein.RotatedAtoms>
   36.5610   34.7348   41.3708 H   0  0  0  0  0  0  0  0  0  0  0  0  # atno 496  bound_to 491 

> <Gold.Score>
     Score     S(PLP)   S(hbond)     S(cho)   S(metal)  DE(clash)   DE(tors)     intcor
     35.27     -32.39       1.00       0.00       0.00       0.00       1.10       2.08

> <Gold.PLP.Fitness>
35.2660

> <Gold.PLP.PLP>
-32.3888

> <Gold.PLP.part.hbond>
-1.0000

> <Gold.PLP.part.metal>
0.0000

> <Gold.PLP.part.buried>
-4.3217

> <Gold.PLP.part.nonpolar>
-27.8713

> <Gold.PLP.part.repulsive>
0.0659

> <Gold.PLP.ligand.clash>
0.0000

> <Gold.PLP.ligand.torsion>
1.1012

> <Gold.PLP.Chemscore.Hbond>
1.0000

> <Gold.PLP.Chemscore.CHOScore>
0.0000

> <Gold.PLP.Chemscore.Metal>
0.0000

> <Gold.Chemscore.Hbonds>
donor molecule, donor type, donor heavy atom, donor atom, acceptor molecule, acceptor atom, score
      L1  H    11    21       P1   470  1.00

> <Gold.PLP.Chemscore.Internal.Correction>
2.0796

