#       Name:                EN300-78665_i001
#       Creating user name   aseyller
#       Creation time:       Fri Apr 21 15:14:35 2023


#       File generated by GOLD software.
#

@<TRIPOS>MOLECULE
EN300-78665_i001|amine_1|mol2|884|dock9
    21    21     1
SMALL
USER_CHARGES


@<TRIPOS>ATOM
      1 C1          31.0943  39.4053  36.2152 C.3            1 <1>                0.0000
      2 S2          31.2319  37.6214  36.5139 S.o2           1 <1>                0.0000
      3 O3          30.9285  36.8931  35.3320 O.2            1 <1>                0.0000
      4 O4          32.3968  37.3314  37.2743 O.2            1 <1>                0.0000
      5 C5          29.8981  37.2541  37.6050 C.ar           1 <1>                0.0000
      6 C6          28.5993  37.5404  37.2273 C.ar           1 <1>                0.0000
      7 C7          27.5484  37.2549  38.0796 C.ar           1 <1>                0.0000
      8 C8          27.7951  36.6800  39.3153 C.ar           1 <1>                0.0000
      9 O9          26.7624  36.3981  40.1544 O.3            1 <1>                0.0000
     10 C10         29.1034  36.3906  39.6964 C.ar           1 <1>                0.0000
     11 N11         29.3587  35.8096  40.9439 N.pl3          1 <1>                0.0000
     12 C12         30.1522  36.6751  38.8341 C.ar           1 <1>                0.0000
     13 H13         30.1269  39.6245  35.7635 H              1 <1>                0.0000
     14 H14         31.1832  39.9399  37.1609 H              1 <1>                0.0000
     15 H15         31.8902  39.7234  35.5419 H              1 <1>                0.0000
     16 H16         28.4050  37.9888  36.2641 H              1 <1>                0.0000
     17 H17         26.5352  37.4806  37.7817 H              1 <1>                0.0000
     18 H18         31.1676  36.4521  39.1265 H              1 <1>                0.0000
     19 H19         27.0373  36.0449  41.0116 H              1 <1>                0.0000
     20 H20         28.6241  35.6079  41.5445 H              1 <1>                0.0000
     21 H21         30.2702  35.6086  41.2081 H              1 <1>                0.0000
@<TRIPOS>BOND
    1    1    2 1     
    2    1   13 1     
    3    1   14 1     
    4    1   15 1     
    5    2    3 2     
    6    2    4 2     
    7    2    5 1     
    8    5    6 ar    
    9    5   12 ar    
   10    6    7 ar    
   11    6   16 1     
   12    7    8 ar    
   13    7   17 1     
   14    8    9 1     
   15    8   10 ar    
   16    9   19 1     
   17   10   11 1     
   18   10   12 ar    
   19   11   20 1     
   20   11   21 1     
   21   12   18 1     
@<TRIPOS>SUBSTRUCTURE
      1 ****           1
@<TRIPOS>SET
DONOR_HYDROGENS      STATIC     ATOMS    <user>   **** ""
3 19 20 21
ATOM$RED        STATIC     ATOMS    COLORGROUP SYSTEM
3 19 20 21
@<TRIPOS>COMMENT
> <Gold.Version>
2022.2.0

> <Gold.Id.Protein>
1qkm|1qkm_protein|mol2

> <Gold.Protein.RotatedTorsions>
[  496  491  490  487 ] final   26.94 input  -89.99 | X-H torsion

> <Gold.Protein.ActiveResidues>
 MET295  LEU298  THR299  LEU301  ALA302  GLU305  TRP335  MET336  LEU339  MET340 
 GLY342  LEU343  ARG346  PHE356  ILE373  ILE376  PHE377  LEU380  LYS471  GLY472 
 MET473  HIS475  LEU476  LEU477  ASN478  MET479  VAL484  VAL487 

> <Gold.Protein.RotatedAtoms>
   36.3314   33.8033   42.3758 H   0  0  0  0  0  0  0  0  0  0  0  0  # atno 496  bound_to 491 

> <Gold.Score>
     Score     S(PLP)   S(hbond)     S(cho)   S(metal)  DE(clash)   DE(tors)     intcor
     33.64     -30.73       1.00       0.00       0.00       0.00       1.09       2.08

> <Gold.PLP.Fitness>
33.6370

> <Gold.PLP.PLP>
-30.7329

> <Gold.PLP.part.hbond>
-1.0000

> <Gold.PLP.part.metal>
0.0000

> <Gold.PLP.part.buried>
-3.9912

> <Gold.PLP.part.nonpolar>
-26.6475

> <Gold.PLP.part.repulsive>
0.1319

> <Gold.PLP.ligand.clash>
0.0000

> <Gold.PLP.ligand.torsion>
1.0877

> <Gold.PLP.Chemscore.Hbond>
1.0000

> <Gold.PLP.Chemscore.CHOScore>
0.0000

> <Gold.PLP.Chemscore.Metal>
0.0000

> <Gold.Chemscore.Hbonds>
donor molecule, donor type, donor heavy atom, donor atom, acceptor molecule, acceptor atom, score
      L1  H    11    21       P1   470  1.00

> <Gold.PLP.Chemscore.Internal.Correction>
2.0796

