#       Name:                plp ligand
#       Creating user name   aseyller
#       Creation time:       Fri Apr 21 15:14:31 2023


#       File generated by GOLD software.
#

@<TRIPOS>MOLECULE
plp ligand
    21    21     1
SMALL
USER_CHARGES


@<TRIPOS>ATOM
      1 C1           2.9155  -0.0987   1.3842 NONPOLAR       1 <1>                0.0000
      2 S2           2.4141  -0.0202  -0.3573 NONPOLAR       1 <1>                0.0000
      3 O3           2.8990   1.1705  -0.9626 ACCEPTOR       1 <1>                0.0000
      4 O4           2.5880  -1.2837  -0.9838 ACCEPTOR       1 <1>                0.0000
      5 C5           0.6669   0.2008  -0.3023 NONPOLAR       1 <1>                0.0000
      6 C6           0.1337   1.4760  -0.2706 NONPOLAR       1 <1>                0.0000
      7 C7          -1.2367   1.6557  -0.2269 NONPOLAR       1 <1>                0.0000
      8 C8          -2.0796   0.5567  -0.2153 NONPOLAR       1 <1>                0.0000
      9 O9          -3.4277   0.7320  -0.1728 DONACC         1 <1>                0.0000
     10 C10         -1.5432  -0.7286  -0.2478 NONPOLAR       1 <1>                0.0000
     11 N11         -2.3901  -1.8429  -0.2363 DONOR          1 <1>                0.0000
     12 C12         -0.1676  -0.9011  -0.2968 NONPOLAR       1 <1>                0.0000
     13 H13          2.6382   0.8292   1.8843                1 <1>                0.0000
     14 H14          2.4144  -0.9365   1.8691                1 <1>                0.0000
     15 H15          3.9950  -0.2361   1.4457                1 <1>                0.0000
     16 H16          0.7894   2.3342  -0.2795                1 <1>                0.0000
     17 H17         -1.6498   2.6532  -0.2014                1 <1>                0.0000
     18 H18          0.2515  -1.8961  -0.3220                1 <1>                0.0000
     19 H19         -3.8439   0.7936  -1.0435                1 <1>                0.0000
     20 H20         -3.3519  -1.7208  -0.2057                1 <1>                0.0000
     21 H21         -2.0153  -2.7373  -0.2589                1 <1>                0.0000
@<TRIPOS>BOND
    1    1    2 1     
    2    1   13 1     
    3    1   14 1     
    4    1   15 1     
    5    2    3 2     
    6    2    4 2     
    7    2    5 1     
    8    5    6 ar    
    9    5   12 ar    
   10    6    7 ar    
   11    6   16 1     
   12    7    8 ar    
   13    7   17 1     
   14    8    9 1     
   15    8   10 ar    
   16    9   19 1     
   17   10   11 1     
   18   10   12 ar    
   19   11   20 1     
   20   11   21 1     
   21   12   18 1     
@<TRIPOS>SUBSTRUCTURE
      1 ****           1
@<TRIPOS>SET
DONOR_HYDROGENS      STATIC     ATOMS    <user>   **** ""
3 19 20 21
ATOM$RED        STATIC     ATOMS    COLORGROUP SYSTEM
3 19 20 21
