#       Name:                EN300-7127842_i001
#       Creating user name   fsindt
#       Creation time:       Wed Mar  1 12:36:49 2023


#       File generated by GOLD software.
#

@<TRIPOS>MOLECULE
EN300-7127842_i001|amine_1|mol2|10353|dock13
    36    36     1
SMALL
USER_CHARGES


@<TRIPOS>ATOM
      1 C1           1.8937 -18.6100  15.3758 C.3            1 <1>                0.0000
      2 N2           0.7219 -18.3817  14.5267 N.am           1 <1>                0.0000
      3 C3           0.4296 -17.0353  14.0283 C.3            1 <1>                0.0000
      4 C4           0.9188 -16.9087  12.5843 C.3            1 <1>                0.0000
      5 O5           2.2345 -17.4328  12.3938 O.3            1 <1>                0.0000
      6 C6          -0.1003 -17.3985  11.5397 C.3            1 <1>                0.0000
      7 N7           0.2843 -16.2071  10.7510 N.4            1 <1>                1.0000
      8 C8           0.7176 -15.5061  11.9826 C.3            1 <1>                0.0000
      9 C9          -0.0872 -19.4101  14.2039 C.2            1 <1>                0.0000
     10 O10         -1.0590 -19.2207  13.4996 O.2            1 <1>                0.0000
     11 O11          0.1815 -20.6473  14.6619 O.3            1 <1>                0.0000
     12 C12         -0.2344 -21.7627  13.8305 C.3            1 <1>                0.0000
     13 C13         -1.7611 -21.8631  13.8383 C.3            1 <1>                0.0000
     14 C14          0.2548 -21.5413  12.3979 C.3            1 <1>                0.0000
     15 C15          0.3647 -23.0591  14.3795 C.3            1 <1>                0.0000
     16 H16          1.6151 -18.4810  16.4217 H              1 <1>                0.0000
     17 H17          2.2629 -19.6237  15.2205 H              1 <1>                0.0000
     18 H18          2.6747 -17.8951  15.1170 H              1 <1>                0.0000
     19 H19         -0.6456 -16.8601  14.0643 H              1 <1>                0.0000
     20 H20          0.9388 -16.2992  14.6503 H              1 <1>                0.0000
     21 H21          0.1724 -18.3432  11.0693 H              1 <1>                0.0000
     22 H22         -1.1322 -17.3789  11.8900 H              1 <1>                0.0000
     23 H23         -0.0749 -14.9325  12.4634 H              1 <1>                0.0000
     24 H24          1.6416 -14.9404  11.8639 H              1 <1>                0.0000
     25 H25         -2.1879 -20.9396  13.4472 H              1 <1>                0.0000
     26 H26         -2.0733 -22.7005  13.2142 H              1 <1>                0.0000
     27 H27         -2.1097 -22.0209  14.8590 H              1 <1>                0.0000
     28 H28          1.3425 -21.4698  12.3923 H              1 <1>                0.0000
     29 H29         -0.0574 -22.3787  11.7739 H              1 <1>                0.0000
     30 H30         -0.1720 -20.6177  12.0069 H              1 <1>                0.0000
     31 H31          0.0161 -23.2169  15.4001 H              1 <1>                0.0000
     32 H32          0.0525 -23.8965  13.7554 H              1 <1>                0.0000
     33 H33          1.4523 -22.9876  14.3739 H              1 <1>                0.0000
     34 H34          2.4489 -17.6323  11.4722 H              1 <1>                0.0000
     35 H35          1.0455 -16.3860  10.1133 H              1 <1>                0.0000
     36 H36         -0.5015 -15.7632  10.2999 H              1 <1>                0.0000
@<TRIPOS>BOND
    1    1    2 1     
    2    1   16 1     
    3    1   17 1     
    4    1   18 1     
    5    2    3 1     
    6    2    9 am    
    7    3    4 1     
    8    3   19 1     
    9    3   20 1     
   10    4    5 1     
   11    4    6 1     
   12    4    8 1     
   13    5   34 1     
   14    6    7 1     
   15    6   21 1     
   16    6   22 1     
   17    7    8 1     
   18    7   35 1     
   19    7   36 1     
   20    8   23 1     
   21    8   24 1     
   22    9   10 2     
   23    9   11 1     
   24   11   12 1     
   25   12   13 1     
   26   12   14 1     
   27   12   15 1     
   28   13   25 1     
   29   13   26 1     
   30   13   27 1     
   31   14   28 1     
   32   14   29 1     
   33   14   30 1     
   34   15   31 1     
   35   15   32 1     
   36   15   33 1     
@<TRIPOS>SUBSTRUCTURE
      1 ****           1
@<TRIPOS>SET
DONOR_HYDROGENS      STATIC     ATOMS    <user>   **** ""
3 34 35 36
ATOM$RED        STATIC     ATOMS    COLORGROUP SYSTEM
3 34 35 36
@<TRIPOS>COMMENT
> <Gold.Version>
2022.2.0

> <Gold.Id.Protein>
3pbl|protein|mol2

> <Gold.Protein.RotatedTorsions>
[ 1303 1298 1297 1294 ] final -172.18 input  179.99 | X-H torsion
[ 2461 2456 2455 2452 ] final   84.99 input   30.03 | X-H torsion
[ 2515 2510 2509 2506 ] final  126.11 input  -89.99 | X-H torsion
[ 3721 3712 3711 3710 ] final   18.56 input -179.91 | X-H torsion
[ 3841 3832 3831 3830 ] final  167.16 input -179.91 | X-H torsion
[ 3767 3762 3761 3758 ] final   70.02 input  -89.99 | X-H torsion
[ 2472 2467 2466 2463 ] final  115.03 input  -89.97 | X-H torsion

> <Gold.Protein.ActiveResidues>
 VAL82   VAL86   LEU89   PHE106  VAL107  ASP110  VAL111  MET112  CYS114  THR115 
 CYS181  SER182  ILE183  PHE188  VAL189  ILE190  SER192  SER193  SER196  TRP342 
 PHE345  PHE346  HIS349  VAL350  TYR365  THR369  GLY372  TYR373 

> <Gold.Protein.RotatedAtoms>
    4.8081   -8.7778    4.6107 H   0  0  0  0  0  0  0  0  0  0  0  0  # atno 1303 bound_to 1298
    2.1169   -8.2451    7.6629 H   0  0  0  0  0  0  0  0  0  0  0  0  # atno 2461 bound_to 2456
   -5.3792   -5.0473    8.0659 H   0  0  0  0  0  0  0  0  0  0  0  0  # atno 2472 bound_to 2467
    2.0544   -8.2639    6.0857 H   0  0  0  0  0  0  0  0  0  0  0  0  # atno 2515 bound_to 2510
   -2.4703  -18.0276   13.9726 H   0  0  0  0  0  0  0  0  0  0  0  0  # atno 3721 bound_to 3712
   -4.4338  -23.3184   10.2803 H   0  0  0  0  0  0  0  0  0  0  0  0  # atno 3767 bound_to 3762
    3.0525  -20.2006    8.4876 H   0  0  0  0  0  0  0  0  0  0  0  0  # atno 3841 bound_to 3832
    4.1159  -10.2539    4.7018 LP  0  0  0  0  0  0  0  0  0  0  0  0  # atno 4297 bound_to 1298
    3.4379   -9.0898    3.7790 LP  0  0  0  0  0  0  0  0  0  0  0  0  # atno 4298 bound_to 1298
    0.5663   -8.2746    7.1510 LP  0  0  0  0  0  0  0  0  0  0  0  0  # atno 4299 bound_to 2456
    1.0548   -9.2884    8.3343 LP  0  0  0  0  0  0  0  0  0  0  0  0  # atno 4300 bound_to 2456
    2.4988   -7.5691    4.6766 LP  0  0  0  0  0  0  0  0  0  0  0  0  # atno 4301 bound_to 2510
    2.7437   -9.1663    4.9125 LP  0  0  0  0  0  0  0  0  0  0  0  0  # atno 4302 bound_to 2510
   -3.3203  -16.8614   14.6764 LP  0  0  0  0  0  0  0  0  0  0  0  0  # atno 4306 bound_to 3712
   -3.3554  -17.0518   13.0550 LP  0  0  0  0  0  0  0  0  0  0  0  0  # atno 4307 bound_to 3712
    2.1790  -21.0818    9.5057 LP  0  0  0  0  0  0  0  0  0  0  0  0  # atno 4314 bound_to 3832
    1.5242  -19.7887    8.7534 LP  0  0  0  0  0  0  0  0  0  0  0  0  # atno 4315 bound_to 3832
   -5.4993  -22.1448   10.6730 LP  0  0  0  0  0  0  0  0  0  0  0  0  # atno 4318 bound_to 3762
   -4.1942  -22.4121   11.6175 LP  0  0  0  0  0  0  0  0  0  0  0  0  # atno 4319 bound_to 3762
   -3.7551   -4.8946    8.1402 LP  0  0  0  0  0  0  0  0  0  0  0  0  # atno 4320 bound_to 2467
   -4.5828   -5.4516    9.4330 LP  0  0  0  0  0  0  0  0  0  0  0  0  # atno 4321 bound_to 2467

> <Gold.Score>
     Score     S(PLP)   S(hbond)     S(cho)   S(metal)  DE(clash)   DE(tors)     intcor
     40.96     -30.27       3.98       0.00       0.00       0.00       0.93       0.60

> <Gold.PLP.Fitness>
40.9550

> <Gold.PLP.PLP>
-30.2699

> <Gold.PLP.part.hbond>
-3.0000

> <Gold.PLP.part.metal>
0.0000

> <Gold.PLP.part.buried>
-1.8103

> <Gold.PLP.part.nonpolar>
-25.8797

> <Gold.PLP.part.repulsive>
0.0122

> <Gold.PLP.ligand.clash>
0.0000

> <Gold.PLP.ligand.torsion>
0.9330

> <Gold.PLP.Chemscore.Hbond>
3.9840

> <Gold.PLP.Chemscore.CHOScore>
0.0000

> <Gold.PLP.Chemscore.Metal>
0.0000

> <Gold.Chemscore.Hbonds>
donor molecule, donor type, donor heavy atom, donor atom, acceptor molecule, acceptor atom, score
      L1  H     5    34       P1  1227  1.00
      L1  H     7    35       P1  1227  1.98
      P1  H  3712  3721       L1    10  1.00

> <Gold.PLP.Chemscore.Internal.Correction>
0.5992

