#       Name:                EN300-7127842_i001
#       Creating user name   fsindt
#       Creation time:       Wed Mar  1 12:36:55 2023


#       File generated by GOLD software.
#

@<TRIPOS>MOLECULE
EN300-7127842_i001|amine_1|mol2|10353|dock18
    36    36     1
SMALL
USER_CHARGES


@<TRIPOS>ATOM
      1 C1          -0.4422 -17.9841  11.2892 C.3            1 <1>                0.0000
      2 N2          -0.2568 -18.3287  12.7010 N.am           1 <1>                0.0000
      3 C3          -0.1035 -17.2680  13.6999 C.3            1 <1>                0.0000
      4 C4           1.2345 -16.5571  13.4877 C.3            1 <1>                0.0000
      5 O5           1.7101 -15.9019  14.6653 O.3            1 <1>                0.0000
      6 C6           2.2958 -17.4289  12.7924 C.3            1 <1>                0.0000
      7 N7           2.6336 -16.2193  12.0099 N.4            1 <1>                1.0000
      8 C8           1.2736 -15.6730  12.2283 C.3            1 <1>                0.0000
      9 C9          -0.2273 -19.6215  13.0810 C.2            1 <1>                0.0000
     10 O10         -0.0735 -19.9073  14.2519 O.2            1 <1>                0.0000
     11 O11         -0.3682 -20.5962  12.1629 O.3            1 <1>                0.0000
     12 C12         -0.7005 -21.9215  12.6544 C.3            1 <1>                0.0000
     13 C13          0.4810 -22.4821  13.4486 C.3            1 <1>                0.0000
     14 C14         -1.9298 -21.8358  13.5611 C.3            1 <1>                0.0000
     15 C15         -1.0027 -22.8432  11.4711 C.3            1 <1>                0.0000
     16 H16          0.5301 -17.9160  10.8012 H              1 <1>                0.0000
     17 H17         -1.0398 -18.7549  10.8025 H              1 <1>                0.0000
     18 H18         -0.9548 -17.0251  11.2137 H              1 <1>                0.0000
     19 H19         -0.9169 -16.5500  13.5951 H              1 <1>                0.0000
     20 H20         -0.1294 -17.7032  14.6989 H              1 <1>                0.0000
     21 H21          3.0949 -17.7604  13.4554 H              1 <1>                0.0000
     22 H22          1.8764 -18.2368  12.1930 H              1 <1>                0.0000
     23 H23          0.5542 -15.9670  11.4639 H              1 <1>                0.0000
     24 H24          1.2585 -14.6037  12.4392 H              1 <1>                0.0000
     25 H25          0.6963 -21.8254  14.2915 H              1 <1>                0.0000
     26 H26          0.2315 -23.4769  13.8175 H              1 <1>                0.0000
     27 H27          1.3568 -22.5431  12.8026 H              1 <1>                0.0000
     28 H28         -2.7716 -21.4365  12.9953 H              1 <1>                0.0000
     29 H29         -2.1793 -22.8307  13.9300 H              1 <1>                0.0000
     30 H30         -1.7145 -21.1792  14.4041 H              1 <1>                0.0000
     31 H31         -0.1269 -22.9043  10.8251 H              1 <1>                0.0000
     32 H32         -1.2522 -23.8381  11.8400 H              1 <1>                0.0000
     33 H33         -1.8445 -22.4438  10.9053 H              1 <1>                0.0000
     34 H34          2.5775 -15.4872  14.5616 H              1 <1>                0.0000
     35 H35          3.3546 -15.6603  12.4410 H              1 <1>                0.0000
     36 H36          2.8277 -16.4194  11.0402 H              1 <1>                0.0000
@<TRIPOS>BOND
    1    1    2 1     
    2    1   16 1     
    3    1   17 1     
    4    1   18 1     
    5    2    3 1     
    6    2    9 am    
    7    3    4 1     
    8    3   19 1     
    9    3   20 1     
   10    4    5 1     
   11    4    6 1     
   12    4    8 1     
   13    5   34 1     
   14    6    7 1     
   15    6   21 1     
   16    6   22 1     
   17    7    8 1     
   18    7   35 1     
   19    7   36 1     
   20    8   23 1     
   21    8   24 1     
   22    9   10 2     
   23    9   11 1     
   24   11   12 1     
   25   12   13 1     
   26   12   14 1     
   27   12   15 1     
   28   13   25 1     
   29   13   26 1     
   30   13   27 1     
   31   14   28 1     
   32   14   29 1     
   33   14   30 1     
   34   15   31 1     
   35   15   32 1     
   36   15   33 1     
@<TRIPOS>SUBSTRUCTURE
      1 ****           1
@<TRIPOS>SET
DONOR_HYDROGENS      STATIC     ATOMS    <user>   **** ""
3 34 35 36
ATOM$RED        STATIC     ATOMS    COLORGROUP SYSTEM
3 34 35 36
@<TRIPOS>COMMENT
> <Gold.Version>
2022.2.0

> <Gold.Id.Protein>
3pbl|protein|mol2

> <Gold.Protein.RotatedTorsions>
[ 1303 1298 1297 1294 ] final    8.17 input  179.99 | X-H torsion
[ 2461 2456 2455 2452 ] final -126.83 input   30.03 | X-H torsion
[ 2515 2510 2509 2506 ] final  -39.45 input  -89.99 | X-H torsion
[ 3721 3712 3711 3710 ] final -118.06 input -179.91 | X-H torsion
[ 3841 3832 3831 3830 ] final  101.10 input -179.91 | X-H torsion
[ 3767 3762 3761 3758 ] final -146.13 input  -89.99 | X-H torsion
[ 2472 2467 2466 2463 ] final -176.09 input  -89.97 | X-H torsion

> <Gold.Protein.ActiveResidues>
 VAL82   VAL86   LEU89   PHE106  VAL107  ASP110  VAL111  MET112  CYS114  THR115 
 CYS181  SER182  ILE183  PHE188  VAL189  ILE190  SER192  SER193  SER196  TRP342 
 PHE345  PHE346  HIS349  VAL350  TYR365  THR369  GLY372  TYR373 

> <Gold.Protein.RotatedAtoms>
    3.4354   -9.9736    4.1209 H   0  0  0  0  0  0  0  0  0  0  0  0  # atno 1303 bound_to 1298
    0.6545   -9.2152    8.1215 H   0  0  0  0  0  0  0  0  0  0  0  0  # atno 2461 bound_to 2456
   -5.3088   -5.4012    9.0693 H   0  0  0  0  0  0  0  0  0  0  0  0  # atno 2472 bound_to 2467
    2.7631   -8.1701    4.3578 H   0  0  0  0  0  0  0  0  0  0  0  0  # atno 2515 bound_to 2510
   -3.2071  -16.6709   14.4285 H   0  0  0  0  0  0  0  0  0  0  0  0  # atno 3721 bound_to 3712
   -4.4864  -22.1555   11.6439 H   0  0  0  0  0  0  0  0  0  0  0  0  # atno 3767 bound_to 3762
    2.9507  -20.8674    9.1477 H   0  0  0  0  0  0  0  0  0  0  0  0  # atno 3841 bound_to 3832
    4.1209   -8.4948    4.0227 LP  0  0  0  0  0  0  0  0  0  0  0  0  # atno 4297 bound_to 1298
    4.8061   -9.6526    4.9482 LP  0  0  0  0  0  0  0  0  0  0  0  0  # atno 4298 bound_to 1298
    2.1467   -8.5641    7.9918 LP  0  0  0  0  0  0  0  0  0  0  0  0  # atno 4299 bound_to 2456
    0.9364   -8.0290    7.0349 LP  0  0  0  0  0  0  0  0  0  0  0  0  # atno 4300 bound_to 2456
    2.4669   -9.2028    5.5873 LP  0  0  0  0  0  0  0  0  0  0  0  0  # atno 4301 bound_to 2510
    2.0665   -7.6262    5.7306 LP  0  0  0  0  0  0  0  0  0  0  0  0  # atno 4302 bound_to 2510
   -3.2063  -17.3262   12.9627 LP  0  0  0  0  0  0  0  0  0  0  0  0  # atno 4306 bound_to 3712
   -2.6187  -18.1532   14.2424 LP  0  0  0  0  0  0  0  0  0  0  0  0  # atno 4307 bound_to 3712
    1.4353  -20.3709    9.3298 LP  0  0  0  0  0  0  0  0  0  0  0  0  # atno 4314 bound_to 3832
    2.3856  -19.7294    8.1670 LP  0  0  0  0  0  0  0  0  0  0  0  0  # atno 4315 bound_to 3832
   -4.1530  -23.3219   10.5506 LP  0  0  0  0  0  0  0  0  0  0  0  0  # atno 4318 bound_to 3762
   -5.4879  -22.3974   10.3768 LP  0  0  0  0  0  0  0  0  0  0  0  0  # atno 4319 bound_to 3762
   -4.7068   -4.8277    7.6640 LP  0  0  0  0  0  0  0  0  0  0  0  0  # atno 4320 bound_to 2467
   -3.7014   -5.1647    8.9059 LP  0  0  0  0  0  0  0  0  0  0  0  0  # atno 4321 bound_to 2467

> <Gold.Score>
     Score     S(PLP)   S(hbond)     S(cho)   S(metal)  DE(clash)   DE(tors)     intcor
     40.72     -33.12       2.82       0.00       0.00       0.00       0.72       0.60

> <Gold.PLP.Fitness>
40.7229

> <Gold.PLP.PLP>
-33.1183

> <Gold.PLP.part.hbond>
-2.0000

> <Gold.PLP.part.metal>
0.0000

> <Gold.PLP.part.buried>
-2.6424

> <Gold.PLP.part.nonpolar>
-28.5309

> <Gold.PLP.part.repulsive>
0.0004

> <Gold.PLP.ligand.clash>
0.0000

> <Gold.PLP.ligand.torsion>
0.7213

> <Gold.PLP.Chemscore.Hbond>
2.8160

> <Gold.PLP.Chemscore.CHOScore>
0.0000

> <Gold.PLP.Chemscore.Metal>
0.0000

> <Gold.Chemscore.Hbonds>
donor molecule, donor type, donor heavy atom, donor atom, acceptor molecule, acceptor atom, score
      L1  H     7    36       P1  1227  2.00
      P1  H  2305  2313       L1     5  0.82

> <Gold.PLP.Chemscore.Internal.Correction>
0.5992

