#       Name:                EN300-7127842_i001
#       Creating user name   fsindt
#       Creation time:       Wed Mar  1 12:36:57 2023


#       File generated by GOLD software.
#

@<TRIPOS>MOLECULE
EN300-7127842_i001|amine_1|mol2|10353|dock20
    36    36     1
SMALL
USER_CHARGES


@<TRIPOS>ATOM
      1 C1           2.0091 -18.8237  15.1115 C.3            1 <1>                0.0000
      2 N2           0.6544 -18.7014  14.5675 N.am           1 <1>                0.0000
      3 C3           0.2032 -17.4259  14.0053 C.3            1 <1>                0.0000
      4 C4           0.9516 -17.1509  12.6996 C.3            1 <1>                0.0000
      5 O5           0.8512 -18.2255  11.7630 O.3            1 <1>                0.0000
      6 C6           0.6499 -15.7691  12.0918 C.3            1 <1>                0.0000
      7 N7           2.0999 -15.6870  11.8084 N.4            1 <1>                1.0000
      8 C8           2.3893 -16.6406  12.9052 C.3            1 <1>                0.0000
      9 C9          -0.1769 -19.7621  14.5841 C.2            1 <1>                0.0000
     10 O10         -1.3005 -19.6607  14.1329 O.2            1 <1>                0.0000
     11 O11          0.2379 -20.9342  15.1008 O.3            1 <1>                0.0000
     12 C12         -0.5201 -22.1188  14.7396 C.3            1 <1>                0.0000
     13 C13         -0.6570 -22.1923  13.2174 C.3            1 <1>                0.0000
     14 C14          0.2085 -23.3649  15.2468 C.3            1 <1>                0.0000
     15 C15         -1.9107 -22.0475  15.3737 C.3            1 <1>                0.0000
     16 H16          1.9995 -18.5687  16.1712 H              1 <1>                0.0000
     17 H17          2.3593 -19.8484  14.9875 H              1 <1>                0.0000
     18 H18          2.6765 -18.1449  14.5804 H              1 <1>                0.0000
     19 H19         -0.8675 -17.4748  13.8069 H              1 <1>                0.0000
     20 H20          0.4049 -16.6241  14.7156 H              1 <1>                0.0000
     21 H21          0.0291 -15.8091  11.1968 H              1 <1>                0.0000
     22 H22          0.3025 -15.0357  12.8193 H              1 <1>                0.0000
     23 H23          2.5507 -16.1626  13.8714 H              1 <1>                0.0000
     24 H24          3.1572 -17.3737  12.6584 H              1 <1>                0.0000
     25 H25          0.3337 -22.2431  12.7657 H              1 <1>                0.0000
     26 H26         -1.2260 -23.0816  12.9463 H              1 <1>                0.0000
     27 H27         -1.1761 -21.3046  12.8560 H              1 <1>                0.0000
     28 H28          0.3059 -23.3126  16.3312 H              1 <1>                0.0000
     29 H29         -0.3606 -24.2541  14.9757 H              1 <1>                0.0000
     30 H30          1.1991 -23.4156  14.7951 H              1 <1>                0.0000
     31 H31         -2.4298 -21.1598  15.0123 H              1 <1>                0.0000
     32 H32         -2.4798 -22.9367  15.1026 H              1 <1>                0.0000
     33 H33         -1.8132 -21.9952  16.4581 H              1 <1>                0.0000
     34 H34          1.3762 -18.0984  10.9608 H              1 <1>                0.0000
     35 H35          2.3443 -16.0495  10.8989 H              1 <1>                0.0000
     36 H36          2.4818 -14.7678  11.9733 H              1 <1>                0.0000
@<TRIPOS>BOND
    1    1    2 1     
    2    1   16 1     
    3    1   17 1     
    4    1   18 1     
    5    2    3 1     
    6    2    9 am    
    7    3    4 1     
    8    3   19 1     
    9    3   20 1     
   10    4    5 1     
   11    4    6 1     
   12    4    8 1     
   13    5   34 1     
   14    6    7 1     
   15    6   21 1     
   16    6   22 1     
   17    7    8 1     
   18    7   35 1     
   19    7   36 1     
   20    8   23 1     
   21    8   24 1     
   22    9   10 2     
   23    9   11 1     
   24   11   12 1     
   25   12   13 1     
   26   12   14 1     
   27   12   15 1     
   28   13   25 1     
   29   13   26 1     
   30   13   27 1     
   31   14   28 1     
   32   14   29 1     
   33   14   30 1     
   34   15   31 1     
   35   15   32 1     
   36   15   33 1     
@<TRIPOS>SUBSTRUCTURE
      1 ****           1
@<TRIPOS>SET
DONOR_HYDROGENS      STATIC     ATOMS    <user>   **** ""
3 34 35 36
ATOM$RED        STATIC     ATOMS    COLORGROUP SYSTEM
3 34 35 36
@<TRIPOS>COMMENT
> <Gold.Version>
2022.2.0

> <Gold.Id.Protein>
3pbl|protein|mol2

> <Gold.Protein.RotatedTorsions>
[ 1303 1298 1297 1294 ] final -139.10 input  179.99 | X-H torsion
[ 2461 2456 2455 2452 ] final   22.77 input   30.03 | X-H torsion
[ 2515 2510 2509 2506 ] final  113.40 input  -89.99 | X-H torsion
[ 3721 3712 3711 3710 ] final    6.11 input -179.91 | X-H torsion
[ 3841 3832 3831 3830 ] final   91.26 input -179.91 | X-H torsion
[ 3767 3762 3761 3758 ] final  177.08 input  -89.99 | X-H torsion
[ 2472 2467 2466 2463 ] final   33.54 input  -89.97 | X-H torsion

> <Gold.Protein.ActiveResidues>
 VAL82   VAL86   LEU89   PHE106  VAL107  ASP110  VAL111  MET112  CYS114  THR115 
 CYS181  SER182  ILE183  PHE188  VAL189  ILE190  SER192  SER193  SER196  TRP342 
 PHE345  PHE346  HIS349  VAL350  TYR365  THR369  GLY372  TYR373 

> <Gold.Protein.RotatedAtoms>
    4.4831   -8.5076    4.2800 H   0  0  0  0  0  0  0  0  0  0  0  0  # atno 1303 bound_to 1298
    1.4023   -7.9180    7.0867 H   0  0  0  0  0  0  0  0  0  0  0  0  # atno 2461 bound_to 2456
   -4.2189   -4.8011    7.7370 H   0  0  0  0  0  0  0  0  0  0  0  0  # atno 2472 bound_to 2467
    2.0325   -8.0628    6.0347 H   0  0  0  0  0  0  0  0  0  0  0  0  # atno 2515 bound_to 2510
   -2.4765  -17.9883   14.1562 H   0  0  0  0  0  0  0  0  0  0  0  0  # atno 3721 bound_to 3712
   -4.0691  -22.5687   11.5472 H   0  0  0  0  0  0  0  0  0  0  0  0  # atno 3767 bound_to 3762
    2.8556  -20.9167    9.2507 H   0  0  0  0  0  0  0  0  0  0  0  0  # atno 3841 bound_to 3832
    4.5485  -10.0131    4.9090 LP  0  0  0  0  0  0  0  0  0  0  0  0  # atno 4297 bound_to 1298
    3.3304   -9.6009    3.9026 LP  0  0  0  0  0  0  0  0  0  0  0  0  # atno 4298 bound_to 1298
    0.3867   -8.9826    7.7956 LP  0  0  0  0  0  0  0  0  0  0  0  0  # atno 4299 bound_to 2456
    1.9488   -8.9073    8.2657 LP  0  0  0  0  0  0  0  0  0  0  0  0  # atno 4300 bound_to 2456
    2.5848   -7.7024    4.5410 LP  0  0  0  0  0  0  0  0  0  0  0  0  # atno 4301 bound_to 2510
    2.6796   -9.2341    5.0992 LP  0  0  0  0  0  0  0  0  0  0  0  0  # atno 4302 bound_to 2510
   -3.4053  -16.7349   14.5356 LP  0  0  0  0  0  0  0  0  0  0  0  0  # atno 4306 bound_to 3712
   -3.2632  -17.2236   12.9839 LP  0  0  0  0  0  0  0  0  0  0  0  0  # atno 4307 bound_to 3712
    1.3998  -20.2411    9.2354 LP  0  0  0  0  0  0  0  0  0  0  0  0  # atno 4314 bound_to 3832
    2.5308  -19.8023    8.1423 LP  0  0  0  0  0  0  0  0  0  0  0  0  # atno 4315 bound_to 3832
   -4.6099  -23.2666   10.1734 LP  0  0  0  0  0  0  0  0  0  0  0  0  # atno 4318 bound_to 3762
   -5.4481  -22.0397   10.8507 LP  0  0  0  0  0  0  0  0  0  0  0  0  # atno 4319 bound_to 3762
   -3.9967   -5.3272    9.2668 LP  0  0  0  0  0  0  0  0  0  0  0  0  # atno 4320 bound_to 2467
   -5.5013   -5.2651    8.6352 LP  0  0  0  0  0  0  0  0  0  0  0  0  # atno 4321 bound_to 2467

> <Gold.Score>
     Score     S(PLP)   S(hbond)     S(cho)   S(metal)  DE(clash)   DE(tors)     intcor
     40.90     -29.24       4.00       0.00       0.00       0.00       0.47       0.60

> <Gold.PLP.Fitness>
40.8951

> <Gold.PLP.PLP>
-29.2374

> <Gold.PLP.part.hbond>
-3.0000

> <Gold.PLP.part.metal>
0.0000

> <Gold.PLP.part.buried>
-2.0691

> <Gold.PLP.part.nonpolar>
-24.2861

> <Gold.PLP.part.repulsive>
0.0241

> <Gold.PLP.ligand.clash>
0.0000

> <Gold.PLP.ligand.torsion>
0.4707

> <Gold.PLP.Chemscore.Hbond>
4.0000

> <Gold.PLP.Chemscore.CHOScore>
0.0000

> <Gold.PLP.Chemscore.Metal>
0.0000

> <Gold.Chemscore.Hbonds>
donor molecule, donor type, donor heavy atom, donor atom, acceptor molecule, acceptor atom, score
      L1  H     5    34       P1  1227  1.00
      L1  H     7    35       P1  1227  2.00
      P1  H  3712  3721       L1    10  1.00

> <Gold.PLP.Chemscore.Internal.Correction>
0.5992

