#       Name:                EN300-7127842_i001
#       Creating user name   fsindt
#       Creation time:       Wed Mar  1 12:36:40 2023


#       File generated by GOLD software.
#

@<TRIPOS>MOLECULE
EN300-7127842_i001|amine_1|mol2|10353|dock3
    36    36     1
SMALL
USER_CHARGES


@<TRIPOS>ATOM
      1 C1           1.1963 -18.6355  15.3161 C.3            1 <1>                0.0000
      2 N2           0.2016 -18.4722  14.2530 N.am           1 <1>                0.0000
      3 C3          -0.0635 -17.1435  13.6957 C.3            1 <1>                0.0000
      4 C4           0.8329 -16.9133  12.4774 C.3            1 <1>                0.0000
      5 O5           0.6576 -17.9034  11.4619 O.3            1 <1>                0.0000
      6 C6           0.7982 -15.4687  11.9468 C.3            1 <1>                0.0000
      7 N7           2.2637 -15.5970  11.7877 N.4            1 <1>                1.0000
      8 C8           2.3063 -16.6457  12.8339 C.3            1 <1>                0.0000
      9 C9          -0.4696 -19.5443  13.7876 C.2            1 <1>                0.0000
     10 O10         -1.2946 -19.4089  12.9059 O.2            1 <1>                0.0000
     11 O11         -0.2259 -20.7653  14.2998 O.3            1 <1>                0.0000
     12 C12         -0.4887 -21.9054  13.4398 C.3            1 <1>                0.0000
     13 C13          0.1749 -21.6816  12.0794 C.3            1 <1>                0.0000
     14 C14          0.0808 -23.1714  14.0829 C.3            1 <1>                0.0000
     15 C15         -1.9986 -22.0642  13.2507 C.3            1 <1>                0.0000
     16 H16          0.7123 -18.5254  16.2865 H              1 <1>                0.0000
     17 H17          1.6454 -19.6261  15.2444 H              1 <1>                0.0000
     18 H18          1.9712 -17.8765  15.2082 H              1 <1>                0.0000
     19 H19         -1.1091 -17.0776  13.3951 H              1 <1>                0.0000
     20 H20          0.1464 -16.3848  14.4497 H              1 <1>                0.0000
     21 H21          0.2620 -15.3599  11.0040 H              1 <1>                0.0000
     22 H22          0.5003 -14.7334  12.6941 H              1 <1>                0.0000
     23 H23          2.4494 -16.2552  13.8415 H              1 <1>                0.0000
     24 H24          2.9746 -17.4739  12.5985 H              1 <1>                0.0000
     25 H25          1.2505 -21.5684  12.2141 H              1 <1>                0.0000
     26 H26         -0.0225 -22.5374  11.4338 H              1 <1>                0.0000
     27 H27         -0.2309 -20.7796  11.6212 H              1 <1>                0.0000
     28 H28         -0.3919 -23.3309  15.0520 H              1 <1>                0.0000
     29 H29         -0.1165 -24.0272  13.4373 H              1 <1>                0.0000
     30 H30          1.1565 -23.0582  14.2176 H              1 <1>                0.0000
     31 H31         -2.4044 -21.1623  12.7925 H              1 <1>                0.0000
     32 H32         -2.1959 -22.9200  12.6051 H              1 <1>                0.0000
     33 H33         -2.4713 -22.2237  14.2199 H              1 <1>                0.0000
     34 H34          1.3809 -17.9420  10.8212 H              1 <1>                0.0000
     35 H35          2.5323 -15.9401  10.8775 H              1 <1>                0.0000
     36 H36          2.7627 -14.7595  12.0476 H              1 <1>                0.0000
@<TRIPOS>BOND
    1    1    2 1     
    2    1   16 1     
    3    1   17 1     
    4    1   18 1     
    5    2    3 1     
    6    2    9 am    
    7    3    4 1     
    8    3   19 1     
    9    3   20 1     
   10    4    5 1     
   11    4    6 1     
   12    4    8 1     
   13    5   34 1     
   14    6    7 1     
   15    6   21 1     
   16    6   22 1     
   17    7    8 1     
   18    7   35 1     
   19    7   36 1     
   20    8   23 1     
   21    8   24 1     
   22    9   10 2     
   23    9   11 1     
   24   11   12 1     
   25   12   13 1     
   26   12   14 1     
   27   12   15 1     
   28   13   25 1     
   29   13   26 1     
   30   13   27 1     
   31   14   28 1     
   32   14   29 1     
   33   14   30 1     
   34   15   31 1     
   35   15   32 1     
   36   15   33 1     
@<TRIPOS>SUBSTRUCTURE
      1 ****           1
@<TRIPOS>SET
DONOR_HYDROGENS      STATIC     ATOMS    <user>   **** ""
3 34 35 36
ATOM$RED        STATIC     ATOMS    COLORGROUP SYSTEM
3 34 35 36
@<TRIPOS>COMMENT
> <Gold.Version>
2022.2.0

> <Gold.Id.Protein>
3pbl|protein|mol2

> <Gold.Protein.RotatedTorsions>
[ 1303 1298 1297 1294 ] final  -93.81 input  179.99 | X-H torsion
[ 2461 2456 2455 2452 ] final -142.16 input   30.03 | X-H torsion
[ 2515 2510 2509 2506 ] final -120.49 input  -89.99 | X-H torsion
[ 3721 3712 3711 3710 ] final   34.12 input -179.91 | X-H torsion
[ 3841 3832 3831 3830 ] final   80.72 input -179.91 | X-H torsion
[ 3767 3762 3761 3758 ] final -111.29 input  -89.99 | X-H torsion
[ 2472 2467 2466 2463 ] final  -45.15 input  -89.97 | X-H torsion

> <Gold.Protein.ActiveResidues>
 VAL82   VAL86   LEU89   PHE106  VAL107  ASP110  VAL111  MET112  CYS114  THR115 
 CYS181  SER182  ILE183  PHE188  VAL189  ILE190  SER192  SER193  SER196  TRP342 
 PHE345  PHE346  HIS349  VAL350  TYR365  THR369  GLY372  TYR373 

> <Gold.Protein.RotatedAtoms>
    3.8759   -8.5953    3.8921 H   0  0  0  0  0  0  0  0  0  0  0  0  # atno 1303 bound_to 1298
    0.8604   -9.2752    8.2532 H   0  0  0  0  0  0  0  0  0  0  0  0  # atno 2461 bound_to 2456
   -3.6511   -5.1020    8.7450 H   0  0  0  0  0  0  0  0  0  0  0  0  # atno 2472 bound_to 2467
    2.7121   -9.2065    5.0084 H   0  0  0  0  0  0  0  0  0  0  0  0  # atno 2515 bound_to 2510
   -2.4912  -18.0273   13.7390 H   0  0  0  0  0  0  0  0  0  0  0  0  # atno 3721 bound_to 3712
   -4.9666  -21.9347   11.4455 H   0  0  0  0  0  0  0  0  0  0  0  0  # atno 3767 bound_to 3762
    2.7374  -20.9483    9.3522 H   0  0  0  0  0  0  0  0  0  0  0  0  # atno 3841 bound_to 3832
    4.8949   -9.3750    4.9021 LP  0  0  0  0  0  0  0  0  0  0  0  0  # atno 4297 bound_to 1298
    3.5916  -10.1513    4.2976 LP  0  0  0  0  0  0  0  0  0  0  0  0  # atno 4298 bound_to 1298
    2.1576   -8.3844    7.8161 LP  0  0  0  0  0  0  0  0  0  0  0  0  # atno 4299 bound_to 2456
    0.7197   -8.1488    7.0789 LP  0  0  0  0  0  0  0  0  0  0  0  0  # atno 4300 bound_to 2456
    2.0403   -8.1582    6.0646 LP  0  0  0  0  0  0  0  0  0  0  0  0  # atno 4301 bound_to 2510
    2.5441   -7.6340    4.6024 LP  0  0  0  0  0  0  0  0  0  0  0  0  # atno 4302 bound_to 2510
   -3.1991  -17.0536   14.8013 LP  0  0  0  0  0  0  0  0  0  0  0  0  # atno 4306 bound_to 3712
   -3.4525  -16.8599   13.1998 LP  0  0  0  0  0  0  0  0  0  0  0  0  # atno 4307 bound_to 3712
    1.3900  -20.1072    9.1217 LP  0  0  0  0  0  0  0  0  0  0  0  0  # atno 4314 bound_to 3832
    2.6773  -19.8996    8.1387 LP  0  0  0  0  0  0  0  0  0  0  0  0  # atno 4315 bound_to 3832
   -3.9226  -23.1174   11.0236 LP  0  0  0  0  0  0  0  0  0  0  0  0  # atno 4318 bound_to 3762
   -5.2382  -22.8227   10.1022 LP  0  0  0  0  0  0  0  0  0  0  0  0  # atno 4319 bound_to 3762
   -5.1853   -5.4325    9.1962 LP  0  0  0  0  0  0  0  0  0  0  0  0  # atno 4320 bound_to 2467
   -4.8804   -4.8590    7.6979 LP  0  0  0  0  0  0  0  0  0  0  0  0  # atno 4321 bound_to 2467

> <Gold.Score>
     Score     S(PLP)   S(hbond)     S(cho)   S(metal)  DE(clash)   DE(tors)     intcor
     43.25     -32.52       3.95       0.00       0.00       0.00       0.88       0.64

> <Gold.PLP.Fitness>
43.2515

> <Gold.PLP.PLP>
-32.5189

> <Gold.PLP.part.hbond>
-3.0000

> <Gold.PLP.part.metal>
0.0000

> <Gold.PLP.part.buried>
-2.7552

> <Gold.PLP.part.nonpolar>
-27.0954

> <Gold.PLP.part.repulsive>
0.0000

> <Gold.PLP.ligand.clash>
0.0000

> <Gold.PLP.ligand.torsion>
0.8830

> <Gold.PLP.Chemscore.Hbond>
3.9520

> <Gold.PLP.Chemscore.CHOScore>
0.0000

> <Gold.PLP.Chemscore.Metal>
0.0000

> <Gold.Chemscore.Hbonds>
donor molecule, donor type, donor heavy atom, donor atom, acceptor molecule, acceptor atom, score
      L1  H     5    34       P1  1227  1.00
      L1  H     7    35       P1  1227  1.95
      P1  H  3712  3721       L1    10  1.00

> <Gold.PLP.Chemscore.Internal.Correction>
0.6427

