#       Name:                EN300-7127842_i001
#       Creating user name   fsindt
#       Creation time:       Wed Mar  1 12:36:44 2023


#       File generated by GOLD software.
#

@<TRIPOS>MOLECULE
EN300-7127842_i001|amine_1|mol2|10353|dock7
    36    36     1
SMALL
USER_CHARGES


@<TRIPOS>ATOM
      1 C1           1.5301 -11.8567   7.7027 C.3            1 <1>                0.0000
      2 N2           0.1778 -12.2592   8.0969 N.am           1 <1>                0.0000
      3 C3          -0.4143 -13.4793   7.5426 C.3            1 <1>                0.0000
      4 C4           0.4215 -14.6891   7.9650 C.3            1 <1>                0.0000
      5 O5           1.6197 -14.8330   7.1997 O.3            1 <1>                0.0000
      6 C6           0.6415 -14.7897   9.4852 C.3            1 <1>                0.0000
      7 N7           0.3919 -16.2394   9.3256 N.4            1 <1>                1.0000
      8 C8          -0.3918 -15.9898   8.0929 C.3            1 <1>                0.0000
      9 C9          -0.5218 -11.5070   8.9695 C.2            1 <1>                0.0000
     10 O10         -0.0309 -10.4952   9.4294 O.2            1 <1>                0.0000
     11 O11         -1.7646 -11.8771   9.3317 O.3            1 <1>                0.0000
     12 C12         -2.5734 -10.8862  10.0190 C.3            1 <1>                0.0000
     13 C13         -2.6199  -9.6013   9.1896 C.3            1 <1>                0.0000
     14 C14         -3.9932 -11.4257  10.2034 C.3            1 <1>                0.0000
     15 C15         -1.9594 -10.5875  11.3881 C.3            1 <1>                0.0000
     16 H16          1.4762 -11.2134   6.8245 H              1 <1>                0.0000
     17 H17          2.0011 -11.3140   8.5223 H              1 <1>                0.0000
     18 H18          2.1191 -12.7434   7.4681 H              1 <1>                0.0000
     19 H19         -1.4317 -13.5919   7.9170 H              1 <1>                0.0000
     20 H20         -0.4328 -13.4123   6.4548 H              1 <1>                0.0000
     21 H21          1.6579 -14.5510   9.7986 H              1 <1>                0.0000
     22 H22         -0.1181 -14.2755  10.0739 H              1 <1>                0.0000
     23 H23         -1.4543 -15.8263   8.2736 H              1 <1>                0.0000
     24 H24         -0.2004 -16.7099   7.2974 H              1 <1>                0.0000
     25 H25         -3.0572  -9.8142   8.2142 H              1 <1>                0.0000
     26 H26         -3.2270  -8.8575   9.7056 H              1 <1>                0.0000
     27 H27         -1.6083  -9.2170   9.0582 H              1 <1>                0.0000
     28 H28         -3.9602 -12.3410  10.7943 H              1 <1>                0.0000
     29 H29         -4.6003 -10.6819  10.7194 H              1 <1>                0.0000
     30 H30         -4.4306 -11.6385   9.2280 H              1 <1>                0.0000
     31 H31         -0.9480 -10.2031  11.2568 H              1 <1>                0.0000
     32 H32         -2.5665  -9.8437  11.9041 H              1 <1>                0.0000
     33 H33         -1.9264 -11.5028  11.9790 H              1 <1>                0.0000
     34 H34          2.3107 -14.1960   7.4273 H              1 <1>                0.0000
     35 H35          1.2346 -16.7674   9.1542 H              1 <1>                0.0000
     36 H36         -0.1622 -16.6282  10.0738 H              1 <1>                0.0000
@<TRIPOS>BOND
    1    1    2 1     
    2    1   16 1     
    3    1   17 1     
    4    1   18 1     
    5    2    3 1     
    6    2    9 am    
    7    3    4 1     
    8    3   19 1     
    9    3   20 1     
   10    4    5 1     
   11    4    6 1     
   12    4    8 1     
   13    5   34 1     
   14    6    7 1     
   15    6   21 1     
   16    6   22 1     
   17    7    8 1     
   18    7   35 1     
   19    7   36 1     
   20    8   23 1     
   21    8   24 1     
   22    9   10 2     
   23    9   11 1     
   24   11   12 1     
   25   12   13 1     
   26   12   14 1     
   27   12   15 1     
   28   13   25 1     
   29   13   26 1     
   30   13   27 1     
   31   14   28 1     
   32   14   29 1     
   33   14   30 1     
   34   15   31 1     
   35   15   32 1     
   36   15   33 1     
@<TRIPOS>SUBSTRUCTURE
      1 ****           1
@<TRIPOS>SET
DONOR_HYDROGENS      STATIC     ATOMS    <user>   **** ""
3 34 35 36
ATOM$RED        STATIC     ATOMS    COLORGROUP SYSTEM
3 34 35 36
@<TRIPOS>COMMENT
> <Gold.Version>
2022.2.0

> <Gold.Id.Protein>
3pbl|protein|mol2

> <Gold.Protein.RotatedTorsions>
[ 1303 1298 1297 1294 ] final  -98.66 input  179.99 | X-H torsion
[ 2461 2456 2455 2452 ] final -147.44 input   30.03 | X-H torsion
[ 2515 2510 2509 2506 ] final   29.94 input  -89.99 | X-H torsion
[ 3721 3712 3711 3710 ] final    4.88 input -179.91 | X-H torsion
[ 3841 3832 3831 3830 ] final   98.97 input -179.91 | X-H torsion
[ 3767 3762 3761 3758 ] final  150.51 input  -89.99 | X-H torsion
[ 2472 2467 2466 2463 ] final   92.09 input  -89.97 | X-H torsion

> <Gold.Protein.ActiveResidues>
 VAL82   VAL86   LEU89   PHE106  VAL107  ASP110  VAL111  MET112  CYS114  THR115 
 CYS181  SER182  ILE183  PHE188  VAL189  ILE190  SER192  SER193  SER196  TRP342 
 PHE345  PHE346  HIS349  VAL350  TYR365  THR369  GLY372  TYR373 

> <Gold.Protein.RotatedAtoms>
    3.9404   -8.5602    3.9233 H   0  0  0  0  0  0  0  0  0  0  0  0  # atno 1303 bound_to 1298
    0.9384   -9.2848    8.2901 H   0  0  0  0  0  0  0  0  0  0  0  0  # atno 2461 bound_to 2456
   -5.1290   -4.9286    7.8130 H   0  0  0  0  0  0  0  0  0  0  0  0  # atno 2472 bound_to 2467
    2.3325   -7.4240    4.9972 H   0  0  0  0  0  0  0  0  0  0  0  0  # atno 2515 bound_to 2510
   -2.4782  -17.9826   14.1738 H   0  0  0  0  0  0  0  0  0  0  0  0  # atno 3721 bound_to 3712
   -3.9201  -22.8915   11.2994 H   0  0  0  0  0  0  0  0  0  0  0  0  # atno 3767 bound_to 3762
    2.9315  -20.8796    9.1705 H   0  0  0  0  0  0  0  0  0  0  0  0  # atno 3841 bound_to 3832
    4.8782   -9.4510    4.9200 LP  0  0  0  0  0  0  0  0  0  0  0  0  # atno 4297 bound_to 1298
    3.5437  -10.1104    4.2485 LP  0  0  0  0  0  0  0  0  0  0  0  0  # atno 4298 bound_to 1298
    2.1463   -8.3255    7.7533 LP  0  0  0  0  0  0  0  0  0  0  0  0  # atno 4299 bound_to 2456
    0.6530   -8.1981    7.1048 LP  0  0  0  0  0  0  0  0  0  0  0  0  # atno 4300 bound_to 2456
    2.8209   -8.9332    4.6105 LP  0  0  0  0  0  0  0  0  0  0  0  0  # atno 4301 bound_to 2510
    2.1434   -8.6423    6.0676 LP  0  0  0  0  0  0  0  0  0  0  0  0  # atno 4302 bound_to 2510
   -3.4130  -16.7239   14.5199 LP  0  0  0  0  0  0  0  0  0  0  0  0  # atno 4306 bound_to 3712
   -3.2536  -17.2412   12.9792 LP  0  0  0  0  0  0  0  0  0  0  0  0  # atno 4307 bound_to 3712
    1.4255  -20.3425    9.3104 LP  0  0  0  0  0  0  0  0  0  0  0  0  # atno 4314 bound_to 3832
    2.4176  -19.7436    8.1599 LP  0  0  0  0  0  0  0  0  0  0  0  0  # atno 4315 bound_to 3832
   -4.9764  -23.0622   10.0657 LP  0  0  0  0  0  0  0  0  0  0  0  0  # atno 4318 bound_to 3762
   -5.2306  -21.9215   11.2062 LP  0  0  0  0  0  0  0  0  0  0  0  0  # atno 4319 bound_to 3762
   -3.6405   -5.0044    8.4799 LP  0  0  0  0  0  0  0  0  0  0  0  0  # atno 4320 bound_to 2467
   -4.9475   -5.4604    9.3461 LP  0  0  0  0  0  0  0  0  0  0  0  0  # atno 4321 bound_to 2467

> <Gold.Score>
     Score     S(PLP)   S(hbond)     S(cho)   S(metal)  DE(clash)   DE(tors)     intcor
     57.73     -49.10       3.00       0.00       0.00       0.02       0.47       0.60

> <Gold.PLP.Fitness>
57.7328

> <Gold.PLP.PLP>
-49.0970

> <Gold.PLP.part.hbond>
-3.0000

> <Gold.PLP.part.metal>
0.0000

> <Gold.PLP.part.buried>
-4.9666

> <Gold.PLP.part.nonpolar>
-42.3862

> <Gold.PLP.part.repulsive>
0.0000

> <Gold.PLP.ligand.clash>
0.0227

> <Gold.PLP.ligand.torsion>
0.4711

> <Gold.PLP.Chemscore.Hbond>
3.0000

> <Gold.PLP.Chemscore.CHOScore>
0.0000

> <Gold.PLP.Chemscore.Metal>
0.0000

> <Gold.Chemscore.Hbonds>
donor molecule, donor type, donor heavy atom, donor atom, acceptor molecule, acceptor atom, score
      L1  H     7    35       P1  1227  2.00
      P1  H  2456  2461       L1    10  1.00

> <Gold.PLP.Chemscore.Internal.Correction>
0.6008

