#       Name:                EN300-7127842_i001
#       Creating user name   fsindt
#       Creation time:       Wed Mar  1 12:36:41 2023


#       File generated by GOLD software.
#

@<TRIPOS>MOLECULE
EN300-7127842_i001|amine_1|mol2|10353|dock4
    36    36     1
SMALL
USER_CHARGES


@<TRIPOS>ATOM
      1 C1           2.1638 -18.3767  15.1240 C.3            1 <1>                0.0000
      2 N2           0.7934 -18.1390  14.6639 N.am           1 <1>                0.0000
      3 C3           0.4423 -16.8623  14.0369 C.3            1 <1>                0.0000
      4 C4           1.0748 -16.7862  12.6459 C.3            1 <1>                0.0000
      5 O5           0.7199 -17.8907  11.8115 O.3            1 <1>                0.0000
      6 C6           0.9089 -15.4161  11.9640 C.3            1 <1>                0.0000
      7 N7           2.3158 -15.5712  11.5328 N.4            1 <1>                1.0000
      8 C8           2.5844 -16.4860  12.6673 C.3            1 <1>                0.0000
      9 C9          -0.1444 -19.0948  14.8173 C.2            1 <1>                0.0000
     10 O10         -1.2809 -18.8977  14.4357 O.2            1 <1>                0.0000
     11 O11          0.1784 -20.2681  15.3935 O.3            1 <1>                0.0000
     12 C12         -0.9186 -21.0975  15.8594 C.3            1 <1>                0.0000
     13 C13         -0.3614 -22.2849  16.6471 C.3            1 <1>                0.0000
     14 C14         -1.8348 -20.2706  16.7636 C.3            1 <1>                0.0000
     15 C15         -1.7155 -21.6110  14.6585 C.3            1 <1>                0.0000
     16 H16          2.2612 -18.0500  16.1593 H              1 <1>                0.0000
     17 H17          2.3905 -19.4407  15.0560 H              1 <1>                0.0000
     18 H18          2.8592 -17.8163  14.4991 H              1 <1>                0.0000
     19 H19         -0.6415 -16.7872  13.9478 H              1 <1>                0.0000
     20 H20          0.8142 -16.0418  14.6506 H              1 <1>                0.0000
     21 H21          0.1944 -15.4189  11.1408 H              1 <1>                0.0000
     22 H22          0.7516 -14.5942  12.6623 H              1 <1>                0.0000
     23 H23          2.9173 -15.9774  13.5721 H              1 <1>                0.0000
     24 H24          3.2079 -17.3404  12.4043 H              1 <1>                0.0000
     25 H25          0.2064 -21.9191  17.5026 H              1 <1>                0.0000
     26 H26         -1.1849 -22.9075  16.9968 H              1 <1>                0.0000
     27 H27          0.2914 -22.8741  16.0029 H              1 <1>                0.0000
     28 H28         -2.2318 -19.4246  16.2025 H              1 <1>                0.0000
     29 H29         -2.6583 -20.8932  17.1134 H              1 <1>                0.0000
     30 H30         -1.2670 -19.9048  17.6191 H              1 <1>                0.0000
     31 H31         -1.0628 -22.2001  14.0143 H              1 <1>                0.0000
     32 H32         -2.5390 -22.2336  15.0082 H              1 <1>                0.0000
     33 H33         -2.1125 -20.7650  14.0974 H              1 <1>                0.0000
     34 H34          1.3121 -18.0208  11.0582 H              1 <1>                0.0000
     35 H35          2.4049 -16.0232  10.6351 H              1 <1>                0.0000
     36 H36          2.8409 -14.7113  11.5862 H              1 <1>                0.0000
@<TRIPOS>BOND
    1    1    2 1     
    2    1   16 1     
    3    1   17 1     
    4    1   18 1     
    5    2    3 1     
    6    2    9 am    
    7    3    4 1     
    8    3   19 1     
    9    3   20 1     
   10    4    5 1     
   11    4    6 1     
   12    4    8 1     
   13    5   34 1     
   14    6    7 1     
   15    6   21 1     
   16    6   22 1     
   17    7    8 1     
   18    7   35 1     
   19    7   36 1     
   20    8   23 1     
   21    8   24 1     
   22    9   10 2     
   23    9   11 1     
   24   11   12 1     
   25   12   13 1     
   26   12   14 1     
   27   12   15 1     
   28   13   25 1     
   29   13   26 1     
   30   13   27 1     
   31   14   28 1     
   32   14   29 1     
   33   14   30 1     
   34   15   31 1     
   35   15   32 1     
   36   15   33 1     
@<TRIPOS>SUBSTRUCTURE
      1 ****           1
@<TRIPOS>SET
DONOR_HYDROGENS      STATIC     ATOMS    <user>   **** ""
3 34 35 36
ATOM$RED        STATIC     ATOMS    COLORGROUP SYSTEM
3 34 35 36
@<TRIPOS>COMMENT
> <Gold.Version>
2022.2.0

> <Gold.Id.Protein>
3pbl|protein|mol2

> <Gold.Protein.RotatedTorsions>
[ 1303 1298 1297 1294 ] final  137.59 input  179.99 | X-H torsion
[ 2461 2456 2455 2452 ] final   75.02 input   30.03 | X-H torsion
[ 2515 2510 2509 2506 ] final   14.04 input  -89.99 | X-H torsion
[ 3721 3712 3711 3710 ] final  -11.18 input -179.91 | X-H torsion
[ 3841 3832 3831 3830 ] final   63.13 input -179.91 | X-H torsion
[ 3767 3762 3761 3758 ] final   55.77 input  -89.99 | X-H torsion
[ 2472 2467 2466 2463 ] final  108.23 input  -89.97 | X-H torsion

> <Gold.Protein.ActiveResidues>
 VAL82   VAL86   LEU89   PHE106  VAL107  ASP110  VAL111  MET112  CYS114  THR115 
 CYS181  SER182  ILE183  PHE188  VAL189  ILE190  SER192  SER193  SER196  TRP342 
 PHE345  PHE346  HIS349  VAL350  TYR365  THR369  GLY372  TYR373 

> <Gold.Protein.RotatedAtoms>
    4.8612   -9.5090    4.9313 H   0  0  0  0  0  0  0  0  0  0  0  0  # atno 1303 bound_to 1298
    2.0549   -8.1491    7.5453 H   0  0  0  0  0  0  0  0  0  0  0  0  # atno 2461 bound_to 2456
   -5.3169   -5.0098    7.9809 H   0  0  0  0  0  0  0  0  0  0  0  0  # atno 2472 bound_to 2467
    2.4434   -7.5048    4.7756 H   0  0  0  0  0  0  0  0  0  0  0  0  # atno 2515 bound_to 2510
   -2.5182  -17.8793   14.3890 H   0  0  0  0  0  0  0  0  0  0  0  0  # atno 3721 bound_to 3712
   -4.6278  -23.2591   10.1638 H   0  0  0  0  0  0  0  0  0  0  0  0  # atno 3767 bound_to 3762
    2.5130  -20.9498    9.4925 H   0  0  0  0  0  0  0  0  0  0  0  0  # atno 3841 bound_to 3832
    3.5095  -10.0752    4.2111 LP  0  0  0  0  0  0  0  0  0  0  0  0  # atno 4297 bound_to 1298
    3.9912   -8.5371    3.9490 LP  0  0  0  0  0  0  0  0  0  0  0  0  # atno 4298 bound_to 1298
    0.4704   -8.3838    7.2266 LP  0  0  0  0  0  0  0  0  0  0  0  0  # atno 4299 bound_to 2456
    1.2127   -9.2751    8.3761 LP  0  0  0  0  0  0  0  0  0  0  0  0  # atno 4300 bound_to 2456
    2.7761   -9.1030    4.8033 LP  0  0  0  0  0  0  0  0  0  0  0  0  # atno 4301 bound_to 2510
    2.0772   -8.3918    6.0965 LP  0  0  0  0  0  0  0  0  0  0  0  0  # atno 4302 bound_to 2510
   -3.4979  -16.6109   14.2928 LP  0  0  0  0  0  0  0  0  0  0  0  0  # atno 4306 bound_to 3712
   -3.1224  -17.4734   12.9579 LP  0  0  0  0  0  0  0  0  0  0  0  0  # atno 4307 bound_to 3712
    1.4385  -19.9078    8.9131 LP  0  0  0  0  0  0  0  0  0  0  0  0  # atno 4314 bound_to 3832
    2.8880  -20.0973    8.1853 LP  0  0  0  0  0  0  0  0  0  0  0  0  # atno 4315 bound_to 3832
   -5.4409  -22.0307   10.8687 LP  0  0  0  0  0  0  0  0  0  0  0  0  # atno 4318 bound_to 3762
   -4.0587  -22.5855   11.5383 LP  0  0  0  0  0  0  0  0  0  0  0  0  # atno 4319 bound_to 3762
   -3.7064   -4.9240    8.2365 LP  0  0  0  0  0  0  0  0  0  0  0  0  # atno 4320 bound_to 2467
   -4.6938   -5.4597    9.4217 LP  0  0  0  0  0  0  0  0  0  0  0  0  # atno 4321 bound_to 2467

> <Gold.Score>
     Score     S(PLP)   S(hbond)     S(cho)   S(metal)  DE(clash)   DE(tors)     intcor
     41.13     -29.40       4.00       0.00       0.00       0.00       0.46       0.64

> <Gold.PLP.Fitness>
41.1285

> <Gold.PLP.PLP>
-29.4046

> <Gold.PLP.part.hbond>
-2.7336

> <Gold.PLP.part.metal>
0.0000

> <Gold.PLP.part.buried>
-1.6484

> <Gold.PLP.part.nonpolar>
-25.2326

> <Gold.PLP.part.repulsive>
0.0616

> <Gold.PLP.ligand.clash>
0.0000

> <Gold.PLP.ligand.torsion>
0.4594

> <Gold.PLP.Chemscore.Hbond>
4.0000

> <Gold.PLP.Chemscore.CHOScore>
0.0000

> <Gold.PLP.Chemscore.Metal>
0.0000

> <Gold.Chemscore.Hbonds>
donor molecule, donor type, donor heavy atom, donor atom, acceptor molecule, acceptor atom, score
      L1  H     5    34       P1  1227  1.00
      L1  H     7    35       P1  1227  2.00
      P1  H  3712  3721       L1    10  1.00

> <Gold.PLP.Chemscore.Internal.Correction>
0.6427

