#       Name:                EN300-7127842_i001
#       Creating user name   fsindt
#       Creation time:       Wed Mar  1 12:36:43 2023


#       File generated by GOLD software.
#

@<TRIPOS>MOLECULE
EN300-7127842_i001|amine_1|mol2|10353|dock6
    36    36     1
SMALL
USER_CHARGES


@<TRIPOS>ATOM
      1 C1           1.5873 -19.9248  15.0752 C.3            1 <1>                0.0000
      2 N2           0.3799 -19.4492  14.3954 N.am           1 <1>                0.0000
      3 C3           0.2369 -18.0292  14.0643 C.3            1 <1>                0.0000
      4 C4           1.1305 -17.6916  12.8693 C.3            1 <1>                0.0000
      5 O5           0.7900 -18.4288  11.6934 O.3            1 <1>                0.0000
      6 C6           1.2961 -16.1804  12.6268 C.3            1 <1>                0.0000
      7 N7           2.7232 -16.4780  12.3732 N.4            1 <1>                1.0000
      8 C8           2.6346 -17.7071  13.1963 C.3            1 <1>                0.0000
      9 C9          -0.5993 -20.3179  14.0743 C.2            1 <1>                0.0000
     10 O10         -1.6006 -19.9234  13.5105 O.2            1 <1>                0.0000
     11 O11         -0.4677 -21.6228  14.3786 O.3            1 <1>                0.0000
     12 C12         -1.1253 -22.5739  13.5003 C.3            1 <1>                0.0000
     13 C13         -0.6366 -23.9876  13.8222 C.3            1 <1>                0.0000
     14 C14         -2.6391 -22.4980  13.7081 C.3            1 <1>                0.0000
     15 C15         -0.7927 -22.2385  12.0450 C.3            1 <1>                0.0000
     16 H16          1.4400 -19.8756  16.1541 H              1 <1>                0.0000
     17 H17          1.7870 -20.9556  14.7825 H              1 <1>                0.0000
     18 H18          2.4332 -19.2971  14.7950 H              1 <1>                0.0000
     19 H19         -0.8022 -17.8178  13.8122 H              1 <1>                0.0000
     20 H20          0.5330 -17.4247  14.9217 H              1 <1>                0.0000
     21 H21          0.7612 -15.8151  11.7502 H              1 <1>                0.0000
     22 H22          1.1255 -15.5720  13.5148 H              1 <1>                0.0000
     23 H23          2.8554 -17.5458  14.2515 H              1 <1>                0.0000
     24 H24          3.1691 -18.5579  12.7739 H              1 <1>                0.0000
     25 H25         -0.8735 -24.2266  14.8590 H              1 <1>                0.0000
     26 H26         -1.1302 -24.7016  13.1629 H              1 <1>                0.0000
     27 H27          0.4420 -24.0418  13.6741 H              1 <1>                0.0000
     28 H28         -2.9873 -21.4908  13.4788 H              1 <1>                0.0000
     29 H29         -3.1327 -23.2119  13.0488 H              1 <1>                0.0000
     30 H30         -2.8760 -22.7369  14.7449 H              1 <1>                0.0000
     31 H31          0.2858 -22.2927  11.8969 H              1 <1>                0.0000
     32 H32         -1.2863 -22.9525  11.3857 H              1 <1>                0.0000
     33 H33         -1.1409 -21.2314  11.8157 H              1 <1>                0.0000
     34 H34          1.2475 -18.1299  10.8955 H              1 <1>                0.0000
     35 H35          2.9187 -16.6697  11.4020 H              1 <1>                0.0000
     36 H36          3.3450 -15.7857  12.7631 H              1 <1>                0.0000
@<TRIPOS>BOND
    1    1    2 1     
    2    1   16 1     
    3    1   17 1     
    4    1   18 1     
    5    2    3 1     
    6    2    9 am    
    7    3    4 1     
    8    3   19 1     
    9    3   20 1     
   10    4    5 1     
   11    4    6 1     
   12    4    8 1     
   13    5   34 1     
   14    6    7 1     
   15    6   21 1     
   16    6   22 1     
   17    7    8 1     
   18    7   35 1     
   19    7   36 1     
   20    8   23 1     
   21    8   24 1     
   22    9   10 2     
   23    9   11 1     
   24   11   12 1     
   25   12   13 1     
   26   12   14 1     
   27   12   15 1     
   28   13   25 1     
   29   13   26 1     
   30   13   27 1     
   31   14   28 1     
   32   14   29 1     
   33   14   30 1     
   34   15   31 1     
   35   15   32 1     
   36   15   33 1     
@<TRIPOS>SUBSTRUCTURE
      1 ****           1
@<TRIPOS>SET
DONOR_HYDROGENS      STATIC     ATOMS    <user>   **** ""
3 34 35 36
ATOM$RED        STATIC     ATOMS    COLORGROUP SYSTEM
3 34 35 36
@<TRIPOS>COMMENT
> <Gold.Version>
2022.2.0

> <Gold.Id.Protein>
3pbl|protein|mol2

> <Gold.Protein.RotatedTorsions>
[ 1303 1298 1297 1294 ] final  -22.83 input  179.99 | X-H torsion
[ 2461 2456 2455 2452 ] final  101.68 input   30.03 | X-H torsion
[ 2515 2510 2509 2506 ] final   17.03 input  -89.99 | X-H torsion
[ 3721 3712 3711 3710 ] final   29.43 input -179.91 | X-H torsion
[ 3841 3832 3831 3830 ] final    8.12 input -179.91 | X-H torsion
[ 3767 3762 3761 3758 ] final -169.92 input  -89.99 | X-H torsion
[ 2472 2467 2466 2463 ] final  125.53 input  -89.97 | X-H torsion

> <Gold.Protein.ActiveResidues>
 VAL82   VAL86   LEU89   PHE106  VAL107  ASP110  VAL111  MET112  CYS114  THR115 
 CYS181  SER182  ILE183  PHE188  VAL189  ILE190  SER192  SER193  SER196  TRP342 
 PHE345  PHE346  HIS349  VAL350  TYR365  THR369  GLY372  TYR373 

> <Gold.Protein.RotatedAtoms>
    3.3296   -9.5436    3.8804 H   0  0  0  0  0  0  0  0  0  0  0  0  # atno 1303 bound_to 1298
    2.1613   -8.4283    7.8614 H   0  0  0  0  0  0  0  0  0  0  0  0  # atno 2461 bound_to 2456
   -5.4527   -5.1073    8.2099 H   0  0  0  0  0  0  0  0  0  0  0  0  # atno 2472 bound_to 2467
    2.4224   -7.4845    4.8151 H   0  0  0  0  0  0  0  0  0  0  0  0  # atno 2515 bound_to 2510
   -2.4816  -18.0332   13.8090 H   0  0  0  0  0  0  0  0  0  0  0  0  # atno 3721 bound_to 3712
   -4.1944  -22.4107   11.6175 H   0  0  0  0  0  0  0  0  0  0  0  0  # atno 3767 bound_to 3762
    1.8129  -20.5769    9.5921 H   0  0  0  0  0  0  0  0  0  0  0  0  # atno 3841 bound_to 3832
    4.5285   -8.5249    4.3176 LP  0  0  0  0  0  0  0  0  0  0  0  0  # atno 4297 bound_to 1298
    4.5044  -10.0527    4.8938 LP  0  0  0  0  0  0  0  0  0  0  0  0  # atno 4298 bound_to 1298
    0.7710   -8.1154    7.0634 LP  0  0  0  0  0  0  0  0  0  0  0  0  # atno 4299 bound_to 2456
    0.8057   -9.2644    8.2233 LP  0  0  0  0  0  0  0  0  0  0  0  0  # atno 4300 bound_to 2456
    2.7867   -9.0752    4.7642 LP  0  0  0  0  0  0  0  0  0  0  0  0  # atno 4301 bound_to 2510
    2.0877   -8.4398    6.0962 LP  0  0  0  0  0  0  0  0  0  0  0  0  # atno 4302 bound_to 2510
   -3.2369  -16.9924   14.7702 LP  0  0  0  0  0  0  0  0  0  0  0  0  # atno 4306 bound_to 3712
   -3.4257  -16.9143   13.1501 LP  0  0  0  0  0  0  0  0  0  0  0  0  # atno 4307 bound_to 3712
    2.0239  -19.6371    8.3082 LP  0  0  0  0  0  0  0  0  0  0  0  0  # atno 4314 bound_to 3832
    3.1113  -20.7988    8.6751 LP  0  0  0  0  0  0  0  0  0  0  0  0  # atno 4315 bound_to 3832
   -4.4334  -23.3189   10.2815 LP  0  0  0  0  0  0  0  0  0  0  0  0  # atno 4318 bound_to 3762
   -5.4994  -22.1453   10.6723 LP  0  0  0  0  0  0  0  0  0  0  0  0  # atno 4319 bound_to 3762
   -3.8525   -4.8560    8.0033 LP  0  0  0  0  0  0  0  0  0  0  0  0  # atno 4320 bound_to 2467
   -4.4119   -5.4302    9.4259 LP  0  0  0  0  0  0  0  0  0  0  0  0  # atno 4321 bound_to 2467

> <Gold.Score>
     Score     S(PLP)   S(hbond)     S(cho)   S(metal)  DE(clash)   DE(tors)     intcor
     41.80     -30.94       3.90       0.00       0.00       0.00       0.73       0.60

> <Gold.PLP.Fitness>
41.7973

> <Gold.PLP.PLP>
-30.9374

> <Gold.PLP.part.hbond>
-3.0000

> <Gold.PLP.part.metal>
0.0000

> <Gold.PLP.part.buried>
-3.1091

> <Gold.PLP.part.nonpolar>
-24.9954

> <Gold.PLP.part.repulsive>
0.0000

> <Gold.PLP.ligand.clash>
0.0000

> <Gold.PLP.ligand.torsion>
0.7265

> <Gold.PLP.Chemscore.Hbond>
3.9040

> <Gold.PLP.Chemscore.CHOScore>
0.0000

> <Gold.PLP.Chemscore.Metal>
0.0000

> <Gold.Chemscore.Hbonds>
donor molecule, donor type, donor heavy atom, donor atom, acceptor molecule, acceptor atom, score
      L1  H     5    34       P1  1227  1.00
      L1  H     7    35       P1  1227  2.00
      P1  H  3712  3721       L1    10  0.90

> <Gold.PLP.Chemscore.Internal.Correction>
0.6008

