#       Name:                EN300-7127842_i001
#       Creating user name   fsindt
#       Creation time:       Wed Mar  1 12:36:45 2023


#       File generated by GOLD software.
#

@<TRIPOS>MOLECULE
EN300-7127842_i001|amine_1|mol2|10353|dock8
    36    36     1
SMALL
USER_CHARGES


@<TRIPOS>ATOM
      1 C1          -0.4740 -18.6582  15.1754 C.3            1 <1>                0.0000
      2 N2           0.7176 -19.3539  14.6830 N.am           1 <1>                0.0000
      3 C3           1.9780 -18.6244  14.5233 C.3            1 <1>                0.0000
      4 C4           2.0360 -18.0065  13.1249 C.3            1 <1>                0.0000
      5 O5           1.8397 -18.9654  12.0836 O.3            1 <1>                0.0000
      6 C6           1.1748 -16.7399  12.9711 C.3            1 <1>                0.0000
      7 N7           2.3125 -16.1787  12.2093 N.4            1 <1>                1.0000
      8 C8           3.2530 -17.0906  12.9021 C.3            1 <1>                0.0000
      9 C9           0.6543 -20.6649  14.3771 C.2            1 <1>                0.0000
     10 O10          1.6425 -21.2419  13.9687 O.2            1 <1>                0.0000
     11 O11         -0.5041 -21.3352  14.5239 O.3            1 <1>                0.0000
     12 C12         -0.6640 -22.5527  13.7489 C.3            1 <1>                0.0000
     13 C13         -0.3329 -22.2707  12.2820 C.3            1 <1>                0.0000
     14 C14          0.2816 -23.6281  14.2876 C.3            1 <1>                0.0000
     15 C15         -2.1094 -23.0420  13.8605 C.3            1 <1>                0.0000
     16 H16         -1.0295 -18.2478  14.3322 H              1 <1>                0.0000
     17 H17         -1.1057 -19.3602  15.7196 H              1 <1>                0.0000
     18 H18         -0.1732 -17.8489  15.8408 H              1 <1>                0.0000
     19 H19          2.0382 -17.8347  15.2722 H              1 <1>                0.0000
     20 H20          2.8143 -19.3116  14.6518 H              1 <1>                0.0000
     21 H21          0.2765 -16.8896  12.3721 H              1 <1>                0.0000
     22 H22          0.9793 -16.2249  13.9115 H              1 <1>                0.0000
     23 H23          3.6659 -16.6787  13.8230 H              1 <1>                0.0000
     24 H24          4.0127 -17.5178  12.2477 H              1 <1>                0.0000
     25 H25          0.6968 -21.9220  12.2026 H              1 <1>                0.0000
     26 H26         -0.4530 -23.1846  11.7003 H              1 <1>                0.0000
     27 H27         -1.0066 -21.5045  11.8982 H              1 <1>                0.0000
     28 H28          0.0457 -23.8290  15.3326 H              1 <1>                0.0000
     29 H29          0.1614 -24.5420  13.7058 H              1 <1>                0.0000
     30 H30          1.3112 -23.2794  14.2081 H              1 <1>                0.0000
     31 H31         -2.7831 -22.2759  13.4767 H              1 <1>                0.0000
     32 H32         -2.2295 -23.9559  13.2787 H              1 <1>                0.0000
     33 H33         -2.3452 -23.2429  14.9055 H              1 <1>                0.0000
     34 H34          1.9185 -18.5994  11.1920 H              1 <1>                0.0000
     35 H35          2.2499 -16.3589  11.2185 H              1 <1>                0.0000
     36 H36          2.4823 -15.2057  12.4151 H              1 <1>                0.0000
@<TRIPOS>BOND
    1    1    2 1     
    2    1   16 1     
    3    1   17 1     
    4    1   18 1     
    5    2    3 1     
    6    2    9 am    
    7    3    4 1     
    8    3   19 1     
    9    3   20 1     
   10    4    5 1     
   11    4    6 1     
   12    4    8 1     
   13    5   34 1     
   14    6    7 1     
   15    6   21 1     
   16    6   22 1     
   17    7    8 1     
   18    7   35 1     
   19    7   36 1     
   20    8   23 1     
   21    8   24 1     
   22    9   10 2     
   23    9   11 1     
   24   11   12 1     
   25   12   13 1     
   26   12   14 1     
   27   12   15 1     
   28   13   25 1     
   29   13   26 1     
   30   13   27 1     
   31   14   28 1     
   32   14   29 1     
   33   14   30 1     
   34   15   31 1     
   35   15   32 1     
   36   15   33 1     
@<TRIPOS>SUBSTRUCTURE
      1 ****           1
@<TRIPOS>SET
DONOR_HYDROGENS      STATIC     ATOMS    <user>   **** ""
3 34 35 36
ATOM$RED        STATIC     ATOMS    COLORGROUP SYSTEM
3 34 35 36
@<TRIPOS>COMMENT
> <Gold.Version>
2022.2.0

> <Gold.Id.Protein>
3pbl|protein|mol2

> <Gold.Protein.RotatedTorsions>
[ 1303 1298 1297 1294 ] final  117.51 input  179.99 | X-H torsion
[ 2461 2456 2455 2452 ] final  102.08 input   30.03 | X-H torsion
[ 2515 2510 2509 2506 ] final -100.66 input  -89.99 | X-H torsion
[ 3721 3712 3711 3710 ] final   -7.88 input -179.91 | X-H torsion
[ 3841 3832 3831 3830 ] final -138.46 input -179.91 | X-H torsion
[ 3767 3762 3761 3758 ] final   68.71 input  -89.99 | X-H torsion
[ 2472 2467 2466 2463 ] final  126.91 input  -89.97 | X-H torsion

> <Gold.Protein.ActiveResidues>
 VAL82   VAL86   LEU89   PHE106  VAL107  ASP110  VAL111  MET112  CYS114  THR115 
 CYS181  SER182  ILE183  PHE188  VAL189  ILE190  SER192  SER193  SER196  TRP342 
 PHE345  PHE346  HIS349  VAL350  TYR365  THR369  GLY372  TYR373 

> <Gold.Protein.RotatedAtoms>
    4.7206   -9.8057    4.9488 H   0  0  0  0  0  0  0  0  0  0  0  0  # atno 1303 bound_to 1298
    2.1614   -8.4329    7.8660 H   0  0  0  0  0  0  0  0  0  0  0  0  # atno 2461 bound_to 2456
   -5.4602   -5.1153    8.2298 H   0  0  0  0  0  0  0  0  0  0  0  0  # atno 2472 bound_to 2467
    2.7942   -9.0520    4.7349 H   0  0  0  0  0  0  0  0  0  0  0  0  # atno 2515 bound_to 2510
   -2.5074  -17.9046   14.3475 H   0  0  0  0  0  0  0  0  0  0  0  0  # atno 3721 bound_to 3712
   -4.4511  -23.3147   10.2680 H   0  0  0  0  0  0  0  0  0  0  0  0  # atno 3767 bound_to 3762
    2.4760  -19.6718    8.3711 H   0  0  0  0  0  0  0  0  0  0  0  0  # atno 3841 bound_to 3832
    3.3741   -9.8398    4.0256 LP  0  0  0  0  0  0  0  0  0  0  0  0  # atno 4297 bound_to 1298
    4.2672   -8.4757    4.1170 LP  0  0  0  0  0  0  0  0  0  0  0  0  # atno 4298 bound_to 1298
    0.7765   -8.1121    7.0620 LP  0  0  0  0  0  0  0  0  0  0  0  0  # atno 4299 bound_to 2456
    0.8002   -9.2631    8.2201 LP  0  0  0  0  0  0  0  0  0  0  0  0  # atno 4300 bound_to 2456
    2.0965   -8.4767    6.0943 LP  0  0  0  0  0  0  0  0  0  0  0  0  # atno 4301 bound_to 2510
    2.4059   -7.4701    4.8463 LP  0  0  0  0  0  0  0  0  0  0  0  0  # atno 4302 bound_to 2510
   -3.4829  -16.6294   14.3424 LP  0  0  0  0  0  0  0  0  0  0  0  0  # atno 4306 bound_to 3712
   -3.1499  -17.4257   12.9562 LP  0  0  0  0  0  0  0  0  0  0  0  0  # atno 4307 bound_to 3712
    2.9160  -21.0654    9.0347 LP  0  0  0  0  0  0  0  0  0  0  0  0  # atno 4314 bound_to 3832
    1.4532  -20.4160    9.3591 LP  0  0  0  0  0  0  0  0  0  0  0  0  # atno 4315 bound_to 3832
   -5.4959  -22.1330   10.6908 LP  0  0  0  0  0  0  0  0  0  0  0  0  # atno 4318 bound_to 3762
   -4.1802  -22.4276   11.6121 LP  0  0  0  0  0  0  0  0  0  0  0  0  # atno 4319 bound_to 3762
   -3.8673   -4.8516    7.9864 LP  0  0  0  0  0  0  0  0  0  0  0  0  # atno 4320 bound_to 2467
   -4.3896   -5.4267    9.4228 LP  0  0  0  0  0  0  0  0  0  0  0  0  # atno 4321 bound_to 2467

> <Gold.Score>
     Score     S(PLP)   S(hbond)     S(cho)   S(metal)  DE(clash)   DE(tors)     intcor
     41.59     -33.67       3.00       0.00       0.00       0.00       0.84       0.60

> <Gold.PLP.Fitness>
41.5893

> <Gold.PLP.PLP>
-33.6686

> <Gold.PLP.part.hbond>
-2.0000

> <Gold.PLP.part.metal>
0.0000

> <Gold.PLP.part.buried>
-4.4682

> <Gold.PLP.part.nonpolar>
-28.4127

> <Gold.PLP.part.repulsive>
0.0000

> <Gold.PLP.ligand.clash>
0.0000

> <Gold.PLP.ligand.torsion>
0.8400

> <Gold.PLP.Chemscore.Hbond>
3.0000

> <Gold.PLP.Chemscore.CHOScore>
0.0000

> <Gold.PLP.Chemscore.Metal>
0.0000

> <Gold.Chemscore.Hbonds>
donor molecule, donor type, donor heavy atom, donor atom, acceptor molecule, acceptor atom, score
      L1  H     5    34       P1  1227  1.00
      L1  H     7    35       P1  1227  2.00

> <Gold.PLP.Chemscore.Internal.Correction>
0.6008

