#       Name:                EN300-7127842_i001
#       Creating user name   fsindt
#       Creation time:       Wed Mar  1 12:36:39 2023


#       File generated by GOLD software.
#

@<TRIPOS>MOLECULE
EN300-7127842_i001|amine_1|mol2|10353|dock1
    36    36     1
SMALL
USER_CHARGES


@<TRIPOS>ATOM
      1 C1           1.4647 -12.6378   6.5249 C.3            1 <1>                0.0000
      2 N2           0.2774 -12.8625   7.3533 N.am           1 <1>                0.0000
      3 C3          -0.4037 -14.1592   7.3208 C.3            1 <1>                0.0000
      4 C4           0.3786 -15.1674   8.1647 C.3            1 <1>                0.0000
      5 O5           1.7004 -15.3986   7.6731 O.3            1 <1>                0.0000
      6 C6           0.3205 -14.8868   9.6772 C.3            1 <1>                0.0000
      7 N7           0.1500 -16.3474   9.8413 N.4            1 <1>                1.0000
      8 C8          -0.4029 -16.4578   8.4709 C.3            1 <1>                0.0000
      9 C9          -0.1883 -11.8764   8.1453 C.2            1 <1>                0.0000
     10 O10          0.3765 -10.8010   8.1724 O.2            1 <1>                0.0000
     11 O11         -1.2794 -12.0832   8.9065 O.3            1 <1>                0.0000
     12 C12         -1.5588 -11.1009   9.9387 C.3            1 <1>                0.0000
     13 C13         -0.3235 -10.9264  10.8245 C.3            1 <1>                0.0000
     14 C14         -1.9121  -9.7626   9.2869 C.3            1 <1>                0.0000
     15 C15         -2.7351 -11.5787  10.7924 C.3            1 <1>                0.0000
     16 H16          1.1611 -12.2488   5.5530 H              1 <1>                0.0000
     17 H17          2.1194 -11.9179   7.0161 H              1 <1>                0.0000
     18 H18          1.9966 -13.5795   6.3895 H              1 <1>                0.0000
     19 H19         -1.4103 -14.0511   7.7246 H              1 <1>                0.0000
     20 H20         -0.4611 -14.5137   6.2917 H              1 <1>                0.0000
     21 H21          1.2545 -14.5046  10.0891 H              1 <1>                0.0000
     22 H22         -0.5497 -14.3060   9.9829 H              1 <1>                0.0000
     23 H23         -1.4851 -16.3365   8.4230 H              1 <1>                0.0000
     24 H24         -0.0468 -17.3299   7.9226 H              1 <1>                0.0000
     25 H25          0.5145 -10.5860  10.2163 H              1 <1>                0.0000
     26 H26         -0.5333 -10.1890  11.5994 H              1 <1>                0.0000
     27 H27         -0.0718 -11.8799  11.2889 H              1 <1>                0.0000
     28 H28         -2.7921  -9.8868   8.6559 H              1 <1>                0.0000
     29 H29         -2.1218  -9.0252  10.0618 H              1 <1>                0.0000
     30 H30         -1.0740  -9.4222   8.6787 H              1 <1>                0.0000
     31 H31         -2.4834 -12.5322  11.2569 H              1 <1>                0.0000
     32 H32         -2.9448 -10.8414  11.5673 H              1 <1>                0.0000
     33 H33         -3.6151 -11.7030  10.1614 H              1 <1>                0.0000
     34 H34          2.2086 -16.0343   8.1953 H              1 <1>                0.0000
     35 H35          1.0260 -16.8360   9.9512 H              1 <1>                0.0000
     36 H36         -0.5188 -16.5877  10.5575 H              1 <1>                0.0000
@<TRIPOS>BOND
    1    1    2 1     
    2    1   16 1     
    3    1   17 1     
    4    1   18 1     
    5    2    3 1     
    6    2    9 am    
    7    3    4 1     
    8    3   19 1     
    9    3   20 1     
   10    4    5 1     
   11    4    6 1     
   12    4    8 1     
   13    5   34 1     
   14    6    7 1     
   15    6   21 1     
   16    6   22 1     
   17    7    8 1     
   18    7   35 1     
   19    7   36 1     
   20    8   23 1     
   21    8   24 1     
   22    9   10 2     
   23    9   11 1     
   24   11   12 1     
   25   12   13 1     
   26   12   14 1     
   27   12   15 1     
   28   13   25 1     
   29   13   26 1     
   30   13   27 1     
   31   14   28 1     
   32   14   29 1     
   33   14   30 1     
   34   15   31 1     
   35   15   32 1     
   36   15   33 1     
@<TRIPOS>SUBSTRUCTURE
      1 ****           1
@<TRIPOS>SET
DONOR_HYDROGENS      STATIC     ATOMS    <user>   **** ""
3 34 35 36
ATOM$RED        STATIC     ATOMS    COLORGROUP SYSTEM
3 34 35 36
@<TRIPOS>COMMENT
> <Gold.Version>
2022.2.0

> <Gold.Id.Protein>
3pbl|protein|mol2

> <Gold.Protein.RotatedTorsions>
[ 1303 1298 1297 1294 ] final  -25.28 input  179.99 | X-H torsion
[ 2461 2456 2455 2452 ] final -130.82 input   30.03 | X-H torsion
[ 2515 2510 2509 2506 ] final  -48.88 input  -89.99 | X-H torsion
[ 3721 3712 3711 3710 ] final   76.46 input -179.91 | X-H torsion
[ 3841 3832 3831 3830 ] final  120.77 input -179.91 | X-H torsion
[ 3767 3762 3761 3758 ] final  162.65 input  -89.99 | X-H torsion
[ 2472 2467 2466 2463 ] final  -28.73 input  -89.97 | X-H torsion

> <Gold.Protein.ActiveResidues>
 VAL82   VAL86   LEU89   PHE106  VAL107  ASP110  VAL111  MET112  CYS114  THR115 
 CYS181  SER182  ILE183  PHE188  VAL189  ILE190  SER192  SER193  SER196  TRP342 
 PHE345  PHE346  HIS349  VAL350  TYR365  THR369  GLY372  TYR373 

> <Gold.Protein.RotatedAtoms>
    3.3309   -9.5058    3.8666 H   0  0  0  0  0  0  0  0  0  0  0  0  # atno 1303 bound_to 1298
    0.7046   -9.2353    8.1590 H   0  0  0  0  0  0  0  0  0  0  0  0  # atno 2461 bound_to 2456
   -3.6389   -5.0096    8.4923 H   0  0  0  0  0  0  0  0  0  0  0  0  # atno 2472 bound_to 2467
    2.7965   -8.3214    4.3560 H   0  0  0  0  0  0  0  0  0  0  0  0  # atno 2515 bound_to 2510
   -2.6894  -17.7638   13.2075 H   0  0  0  0  0  0  0  0  0  0  0  0  # atno 3721 bound_to 3712
   -3.9686  -22.7471   11.4279 H   0  0  0  0  0  0  0  0  0  0  0  0  # atno 3767 bound_to 3762
    3.0850  -20.7180    8.9308 H   0  0  0  0  0  0  0  0  0  0  0  0  # atno 3841 bound_to 3832
    4.5571   -8.5383    4.3427 LP  0  0  0  0  0  0  0  0  0  0  0  0  # atno 4297 bound_to 1298
    4.4745  -10.0772    4.8825 LP  0  0  0  0  0  0  0  0  0  0  0  0  # atno 4298 bound_to 1298
    2.1558   -8.5165    7.9475 LP  0  0  0  0  0  0  0  0  0  0  0  0  # atno 4299 bound_to 2456
    0.8772   -8.0566    7.0417 LP  0  0  0  0  0  0  0  0  0  0  0  0  # atno 4300 bound_to 2456
    2.4006   -9.1397    5.7122 LP  0  0  0  0  0  0  0  0  0  0  0  0  # atno 4301 bound_to 2510
    2.0994   -7.5381    5.6075 LP  0  0  0  0  0  0  0  0  0  0  0  0  # atno 4302 bound_to 2510
   -2.8554  -17.6535   14.8006 LP  0  0  0  0  0  0  0  0  0  0  0  0  # atno 4306 bound_to 3712
   -3.5673  -16.5642   13.8141 LP  0  0  0  0  0  0  0  0  0  0  0  0  # atno 4307 bound_to 3712
    1.5769  -20.6286    9.4728 LP  0  0  0  0  0  0  0  0  0  0  0  0  # atno 4314 bound_to 3832
    2.0888  -19.6443    8.2745 LP  0  0  0  0  0  0  0  0  0  0  0  0  # atno 4315 bound_to 3832
   -4.8114  -23.1702   10.0947 LP  0  0  0  0  0  0  0  0  0  0  0  0  # atno 4318 bound_to 3762
   -5.3471  -21.9578   11.0486 LP  0  0  0  0  0  0  0  0  0  0  0  0  # atno 4319 bound_to 3762
   -4.9596   -5.4598    9.3406 LP  0  0  0  0  0  0  0  0  0  0  0  0  # atno 4320 bound_to 2467
   -5.1182   -4.9242    7.8062 LP  0  0  0  0  0  0  0  0  0  0  0  0  # atno 4321 bound_to 2467

> <Gold.Score>
     Score     S(PLP)   S(hbond)     S(cho)   S(metal)  DE(clash)   DE(tors)     intcor
     59.05     -49.20       3.45       0.00       0.00       0.20       0.49       0.69

> <Gold.PLP.Fitness>
59.0455

> <Gold.PLP.PLP>
-49.2032

> <Gold.PLP.part.hbond>
-3.8742

> <Gold.PLP.part.metal>
0.0000

> <Gold.PLP.part.buried>
-5.8371

> <Gold.PLP.part.nonpolar>
-41.4821

> <Gold.PLP.part.repulsive>
0.0058

> <Gold.PLP.ligand.clash>
0.2022

> <Gold.PLP.ligand.torsion>
0.4917

> <Gold.PLP.Chemscore.Hbond>
3.4461

> <Gold.PLP.Chemscore.CHOScore>
0.0000

> <Gold.PLP.Chemscore.Metal>
0.0000

> <Gold.Chemscore.Hbonds>
donor molecule, donor type, donor heavy atom, donor atom, acceptor molecule, acceptor atom, score
      L1  H     5    34       P1  1227  0.45
      L1  H     7    35       P1  1227  2.00
      P1  H  2456  2461       L1    10  1.00

> <Gold.PLP.Chemscore.Internal.Correction>
0.6897

