#       Name:                EN300-7127842_i001
#       Creating user name   fsindt
#       Creation time:       Wed Mar  1 12:36:45 2023


#       File generated by GOLD software.
#

@<TRIPOS>MOLECULE
EN300-7127842_i001|amine_1|mol2|10353|dock9
    36    36     1
SMALL
USER_CHARGES


@<TRIPOS>ATOM
      1 C1           2.2329 -17.3341  14.6412 C.3            1 <1>                0.0000
      2 N2           0.8593 -17.4743  14.1514 N.am           1 <1>                0.0000
      3 C3          -0.0089 -16.2978  14.0586 C.3            1 <1>                0.0000
      4 C4           0.1751 -15.6347  12.6922 C.3            1 <1>                0.0000
      5 O5          -0.4928 -14.3755  12.5896 O.3            1 <1>                0.0000
      6 C6           1.6372 -15.6015  12.2115 C.3            1 <1>                0.0000
      7 N7           1.1041 -15.9674  10.8806 N.4            1 <1>                1.0000
      8 C8          -0.0936 -16.5770  11.5050 C.3            1 <1>                0.0000
      9 C9           0.3943 -18.6854  13.7862 C.2            1 <1>                0.0000
     10 O10         -0.7449 -18.8016  13.3800 O.2            1 <1>                0.0000
     11 O11          1.1922 -19.7665  13.8715 O.3            1 <1>                0.0000
     12 C12          0.5494 -21.0669  13.8072 C.3            1 <1>                0.0000
     13 C13          1.5770 -22.1593  14.1099 C.3            1 <1>                0.0000
     14 C14         -0.5797 -21.1293  14.8378 C.3            1 <1>                0.0000
     15 C15         -0.0263 -21.2824  12.4062 C.3            1 <1>                0.0000
     16 H16          2.2477 -17.4640  15.7233 H              1 <1>                0.0000
     17 H17          2.8636 -18.0914  14.1756 H              1 <1>                0.0000
     18 H18          2.6091 -16.3427  14.3890 H              1 <1>                0.0000
     19 H19         -1.0485 -16.6032  14.1771 H              1 <1>                0.0000
     20 H20          0.2537 -15.5896  14.8445 H              1 <1>                0.0000
     21 H21          2.0885 -14.6099  12.2463 H              1 <1>                0.0000
     22 H22          2.2645 -16.3715  12.6602 H              1 <1>                0.0000
     23 H23          0.0269 -17.6329  11.7475 H              1 <1>                0.0000
     24 H24         -1.0217 -16.3645  10.9743 H              1 <1>                0.0000
     25 H25          1.9872 -22.0057  15.1080 H              1 <1>                0.0000
     26 H26          1.0945 -23.1355  14.0615 H              1 <1>                0.0000
     27 H27          2.3815 -22.1149  13.3756 H              1 <1>                0.0000
     28 H28         -1.3118 -20.3510  14.6222 H              1 <1>                0.0000
     29 H29         -1.0622 -22.1054  14.7895 H              1 <1>                0.0000
     30 H30         -0.1695 -20.9757  15.8359 H              1 <1>                0.0000
     31 H31          0.7780 -21.2381  11.6719 H              1 <1>                0.0000
     32 H32         -0.5089 -22.2586  12.3578 H              1 <1>                0.0000
     33 H33         -0.7585 -20.5042  12.1906 H              1 <1>                0.0000
     34 H34         -0.5948 -14.0572  11.6822 H              1 <1>                0.0000
     35 H35          0.8835 -15.1646  10.3106 H              1 <1>                0.0000
     36 H36          1.6815 -16.6383  10.3962 H              1 <1>                0.0000
@<TRIPOS>BOND
    1    1    2 1     
    2    1   16 1     
    3    1   17 1     
    4    1   18 1     
    5    2    3 1     
    6    2    9 am    
    7    3    4 1     
    8    3   19 1     
    9    3   20 1     
   10    4    5 1     
   11    4    6 1     
   12    4    8 1     
   13    5   34 1     
   14    6    7 1     
   15    6   21 1     
   16    6   22 1     
   17    7    8 1     
   18    7   35 1     
   19    7   36 1     
   20    8   23 1     
   21    8   24 1     
   22    9   10 2     
   23    9   11 1     
   24   11   12 1     
   25   12   13 1     
   26   12   14 1     
   27   12   15 1     
   28   13   25 1     
   29   13   26 1     
   30   13   27 1     
   31   14   28 1     
   32   14   29 1     
   33   14   30 1     
   34   15   31 1     
   35   15   32 1     
   36   15   33 1     
@<TRIPOS>SUBSTRUCTURE
      1 ****           1
@<TRIPOS>SET
DONOR_HYDROGENS      STATIC     ATOMS    <user>   **** ""
3 34 35 36
ATOM$RED        STATIC     ATOMS    COLORGROUP SYSTEM
3 34 35 36
@<TRIPOS>COMMENT
> <Gold.Version>
2022.2.0

> <Gold.Id.Protein>
3pbl|protein|mol2

> <Gold.Protein.RotatedTorsions>
[ 1303 1298 1297 1294 ] final   55.44 input  179.99 | X-H torsion
[ 2461 2456 2455 2452 ] final  -30.77 input   30.03 | X-H torsion
[ 2515 2510 2509 2506 ] final  148.43 input  -89.99 | X-H torsion
[ 3721 3712 3711 3710 ] final   43.39 input -179.91 | X-H torsion
[ 3841 3832 3831 3830 ] final   38.27 input -179.91 | X-H torsion
[ 3767 3762 3761 3758 ] final   -3.06 input  -89.99 | X-H torsion
[ 2472 2467 2466 2463 ] final  115.02 input  -89.97 | X-H torsion

> <Gold.Protein.ActiveResidues>
 VAL82   VAL86   LEU89   PHE106  VAL107  ASP110  VAL111  MET112  CYS114  THR115 
 CYS181  SER182  ILE183  PHE188  VAL189  ILE190  SER192  SER193  SER196  TRP342 
 PHE345  PHE346  HIS349  VAL350  TYR365  THR369  GLY372  TYR373 

> <Gold.Protein.RotatedAtoms>
    3.9462  -10.2717    4.5914 H   0  0  0  0  0  0  0  0  0  0  0  0  # atno 1303 bound_to 1298
    0.6133   -8.2308    7.1237 H   0  0  0  0  0  0  0  0  0  0  0  0  # atno 2461 bound_to 2456
   -5.3790   -5.0472    8.0657 H   0  0  0  0  0  0  0  0  0  0  0  0  # atno 2472 bound_to 2467
    2.1364   -8.6191    6.0729 H   0  0  0  0  0  0  0  0  0  0  0  0  # atno 2515 bound_to 2510
   -2.5182  -18.0011   13.6043 H   0  0  0  0  0  0  0  0  0  0  0  0  # atno 3721 bound_to 3712
   -5.3498  -22.6789   10.1673 H   0  0  0  0  0  0  0  0  0  0  0  0  # atno 3767 bound_to 3762
    2.1746  -20.8444    9.6077 H   0  0  0  0  0  0  0  0  0  0  0  0  # atno 3841 bound_to 3832
    3.5396   -8.9135    3.7812 LP  0  0  0  0  0  0  0  0  0  0  0  0  # atno 4297 bound_to 1298
    4.8764   -8.9358    4.7188 LP  0  0  0  0  0  0  0  0  0  0  0  0  # atno 4298 bound_to 1298
    0.9891   -9.2878    8.3107 LP  0  0  0  0  0  0  0  0  0  0  0  0  # atno 4299 bound_to 2456
    2.1352   -8.2895    7.7135 LP  0  0  0  0  0  0  0  0  0  0  0  0  # atno 4300 bound_to 2456
    2.3426   -7.4284    4.9750 LP  0  0  0  0  0  0  0  0  0  0  0  0  # atno 4301 bound_to 2510
    2.8179   -8.9515    4.6269 LP  0  0  0  0  0  0  0  0  0  0  0  0  # atno 4302 bound_to 2510
   -3.1224  -17.1805   14.8451 LP  0  0  0  0  0  0  0  0  0  0  0  0  # atno 4306 bound_to 3712
   -3.4979  -16.7632   13.3116 LP  0  0  0  0  0  0  0  0  0  0  0  0  # atno 4307 bound_to 3712
    1.6354  -19.7072    8.6116 LP  0  0  0  0  0  0  0  0  0  0  0  0  # atno 4314 bound_to 3832
    3.0820  -20.4197    8.3538 LP  0  0  0  0  0  0  0  0  0  0  0  0  # atno 4315 bound_to 3832
   -4.8066  -21.9845   11.5419 LP  0  0  0  0  0  0  0  0  0  0  0  0  # atno 4318 bound_to 3762
   -3.9711  -23.2117   10.8617 LP  0  0  0  0  0  0  0  0  0  0  0  0  # atno 4319 bound_to 3762
   -3.7550   -4.8947    8.1404 LP  0  0  0  0  0  0  0  0  0  0  0  0  # atno 4320 bound_to 2467
   -4.5830   -5.4516    9.4329 LP  0  0  0  0  0  0  0  0  0  0  0  0  # atno 4321 bound_to 2467

> <Gold.Score>
     Score     S(PLP)   S(hbond)     S(cho)   S(metal)  DE(clash)   DE(tors)     intcor
     43.22     -35.08       3.00       0.00       0.00       0.00       0.73       0.60

> <Gold.PLP.Fitness>
43.2218

> <Gold.PLP.PLP>
-35.0841

> <Gold.PLP.part.hbond>
-2.0000

> <Gold.PLP.part.metal>
0.0000

> <Gold.PLP.part.buried>
-3.7297

> <Gold.PLP.part.nonpolar>
-29.5953

> <Gold.PLP.part.repulsive>
0.0148

> <Gold.PLP.ligand.clash>
0.0000

> <Gold.PLP.ligand.torsion>
0.7315

> <Gold.PLP.Chemscore.Hbond>
3.0000

> <Gold.PLP.Chemscore.CHOScore>
0.0000

> <Gold.PLP.Chemscore.Metal>
0.0000

> <Gold.Chemscore.Hbonds>
donor molecule, donor type, donor heavy atom, donor atom, acceptor molecule, acceptor atom, score
      L1  H     7    36       P1  1227  2.00
      P1  H  3712  3721       L1    10  1.00

> <Gold.PLP.Chemscore.Internal.Correction>
0.6008

