#       Name:                EN300-7127842_i001
#       Creating user name   fsindt
#       Creation time:       Wed Mar  1 12:36:52 2023


#       File generated by GOLD software.
#

@<TRIPOS>MOLECULE
EN300-7127842_i001|amine_1|mol2|10353|dock16
    36    36     1
SMALL
USER_CHARGES


@<TRIPOS>ATOM
      1 C1           2.2636 -17.9113  14.9936 C.3            1 <1>                0.0000
      2 N2           0.9623 -17.9450  14.3214 N.am           1 <1>                0.0000
      3 C3           0.4133 -16.7239  13.7264 C.3            1 <1>                0.0000
      4 C4           0.9423 -16.5696  12.2992 C.3            1 <1>                0.0000
      5 O5           0.6259 -17.6852  11.4642 O.3            1 <1>                0.0000
      6 C6           0.6169 -15.2066  11.6619 C.3            1 <1>                0.0000
      7 N7           1.9997 -15.2337  11.1360 N.4            1 <1>                1.0000
      8 C8           2.4195 -16.1423  12.2288 C.3            1 <1>                0.0000
      9 C9           0.2702 -19.0993  14.2503 C.2            1 <1>                0.0000
     10 O10         -0.8091 -19.1273  13.6929 O.2            1 <1>                0.0000
     11 O11          0.7748 -20.2214  14.7971 O.3            1 <1>                0.0000
     12 C12          0.4077 -21.4808  14.1745 C.3            1 <1>                0.0000
     13 C13          1.3189 -22.5930  14.6975 C.3            1 <1>                0.0000
     14 C14         -1.0471 -21.8121  14.5129 C.3            1 <1>                0.0000
     15 C15          0.5646 -21.3643  12.6571 C.3            1 <1>                0.0000
     16 H16          2.1214 -17.6789  16.0490 H              1 <1>                0.0000
     17 H17          2.7474 -18.8832  14.8975 H              1 <1>                0.0000
     18 H18          2.8899 -17.1465  14.5343 H              1 <1>                0.0000
     19 H19         -0.6747 -16.7873  13.7057 H              1 <1>                0.0000
     20 H20          0.7159 -15.8621  14.3213 H              1 <1>                0.0000
     21 H21         -0.1485 -15.2556  10.8873 H              1 <1>                0.0000
     22 H22          0.4386 -14.4137  12.3880 H              1 <1>                0.0000
     23 H23          2.7687 -15.6235  13.1216 H              1 <1>                0.0000
     24 H24          3.0933 -16.9358  11.9057 H              1 <1>                0.0000
     25 H25          1.2072 -22.6760  15.7786 H              1 <1>                0.0000
     26 H26          1.0434 -23.5384  14.2301 H              1 <1>                0.0000
     27 H27          2.3555 -22.3570  14.4564 H              1 <1>                0.0000
     28 H28         -1.6964 -21.0197  14.1403 H              1 <1>                0.0000
     29 H29         -1.3227 -22.7574  14.0455 H              1 <1>                0.0000
     30 H30         -1.1589 -21.8950  15.5940 H              1 <1>                0.0000
     31 H31          1.6010 -21.1283  12.4159 H              1 <1>                0.0000
     32 H32          0.2891 -22.3096  12.1897 H              1 <1>                0.0000
     33 H33         -0.0847 -20.5720  12.2845 H              1 <1>                0.0000
     34 H34          1.3107 -17.8974  10.8151 H              1 <1>                0.0000
     35 H35          2.0658 -15.6605  10.2241 H              1 <1>                0.0000
     36 H36          2.4533 -14.3333  11.1750 H              1 <1>                0.0000
@<TRIPOS>BOND
    1    1    2 1     
    2    1   16 1     
    3    1   17 1     
    4    1   18 1     
    5    2    3 1     
    6    2    9 am    
    7    3    4 1     
    8    3   19 1     
    9    3   20 1     
   10    4    5 1     
   11    4    6 1     
   12    4    8 1     
   13    5   34 1     
   14    6    7 1     
   15    6   21 1     
   16    6   22 1     
   17    7    8 1     
   18    7   35 1     
   19    7   36 1     
   20    8   23 1     
   21    8   24 1     
   22    9   10 2     
   23    9   11 1     
   24   11   12 1     
   25   12   13 1     
   26   12   14 1     
   27   12   15 1     
   28   13   25 1     
   29   13   26 1     
   30   13   27 1     
   31   14   28 1     
   32   14   29 1     
   33   14   30 1     
   34   15   31 1     
   35   15   32 1     
   36   15   33 1     
@<TRIPOS>SUBSTRUCTURE
      1 ****           1
@<TRIPOS>SET
DONOR_HYDROGENS      STATIC     ATOMS    <user>   **** ""
3 34 35 36
ATOM$RED        STATIC     ATOMS    COLORGROUP SYSTEM
3 34 35 36
@<TRIPOS>COMMENT
> <Gold.Version>
2022.2.0

> <Gold.Id.Protein>
3pbl|protein|mol2

> <Gold.Protein.RotatedTorsions>
[ 1303 1298 1297 1294 ] final -173.77 input  179.99 | X-H torsion
[ 2461 2456 2455 2452 ] final -160.83 input   30.03 | X-H torsion
[ 2515 2510 2509 2506 ] final   15.92 input  -89.99 | X-H torsion
[ 3721 3712 3711 3710 ] final   22.61 input -179.91 | X-H torsion
[ 3841 3832 3831 3830 ] final  172.82 input -179.91 | X-H torsion
[ 3767 3762 3761 3758 ] final  104.91 input  -89.99 | X-H torsion
[ 2472 2467 2466 2463 ] final  122.92 input  -89.97 | X-H torsion

> <Gold.Protein.ActiveResidues>
 VAL82   VAL86   LEU89   PHE106  VAL107  ASP110  VAL111  MET112  CYS114  THR115 
 CYS181  SER182  ILE183  PHE188  VAL189  ILE190  SER192  SER193  SER196  TRP342 
 PHE345  PHE346  HIS349  VAL350  TYR365  THR369  GLY372  TYR373 

> <Gold.Protein.RotatedAtoms>
    4.8187   -8.7967    4.6253 H   0  0  0  0  0  0  0  0  0  0  0  0  # atno 1303 bound_to 1298
    1.1464   -9.2833    8.3612 H   0  0  0  0  0  0  0  0  0  0  0  0  # atno 2461 bound_to 2456
   -5.4371   -5.0923    8.1729 H   0  0  0  0  0  0  0  0  0  0  0  0  # atno 2472 bound_to 2467
    2.4301   -7.4917    4.8003 H   0  0  0  0  0  0  0  0  0  0  0  0  # atno 2515 bound_to 2510
   -2.4727  -18.0328   13.9118 H   0  0  0  0  0  0  0  0  0  0  0  0  # atno 3721 bound_to 3712
   -4.0521  -23.2820   10.6960 H   0  0  0  0  0  0  0  0  0  0  0  0  # atno 3767 bound_to 3762
    3.0149  -20.1334    8.4507 H   0  0  0  0  0  0  0  0  0  0  0  0  # atno 3841 bound_to 3832
    4.0940  -10.2586    4.6884 LP  0  0  0  0  0  0  0  0  0  0  0  0  # atno 4297 bound_to 1298
    3.4493   -9.0663    3.7777 LP  0  0  0  0  0  0  0  0  0  0  0  0  # atno 4298 bound_to 1298
    2.0836   -8.1878    7.5939 LP  0  0  0  0  0  0  0  0  0  0  0  0  # atno 4299 bound_to 2456
    0.5077   -8.3373    7.1931 LP  0  0  0  0  0  0  0  0  0  0  0  0  # atno 4300 bound_to 2456
    2.7829   -9.0858    4.7785 LP  0  0  0  0  0  0  0  0  0  0  0  0  # atno 4301 bound_to 2510
    2.0837   -8.4220    6.0966 LP  0  0  0  0  0  0  0  0  0  0  0  0  # atno 4302 bound_to 2510
   -3.2901  -16.9082   14.7148 LP  0  0  0  0  0  0  0  0  0  0  0  0  # atno 4306 bound_to 3712
   -3.3829  -16.9989   13.0869 LP  0  0  0  0  0  0  0  0  0  0  0  0  # atno 4307 bound_to 3712
    2.2647  -21.1111    9.4790 LP  0  0  0  0  0  0  0  0  0  0  0  0  # atno 4314 bound_to 3832
    1.4820  -19.8370    8.8228 LP  0  0  0  0  0  0  0  0  0  0  0  0  # atno 4315 bound_to 3832
   -5.4365  -22.5307   10.2647 LP  0  0  0  0  0  0  0  0  0  0  0  0  # atno 4318 bound_to 3762
   -4.6385  -22.0626   11.6104 LP  0  0  0  0  0  0  0  0  0  0  0  0  # atno 4319 bound_to 3762
   -3.8260   -4.8648    8.0357 LP  0  0  0  0  0  0  0  0  0  0  0  0  # atno 4320 bound_to 2467
   -4.4540   -5.4365    9.4304 LP  0  0  0  0  0  0  0  0  0  0  0  0  # atno 4321 bound_to 2467

> <Gold.Score>
     Score     S(PLP)   S(hbond)     S(cho)   S(metal)  DE(clash)   DE(tors)     intcor
     40.52     -31.81       3.33       0.00       0.00       0.00       0.94       0.60

> <Gold.PLP.Fitness>
40.5154

> <Gold.PLP.PLP>
-31.8087

> <Gold.PLP.part.hbond>
-3.0000

> <Gold.PLP.part.metal>
0.0000

> <Gold.PLP.part.buried>
-1.7787

> <Gold.PLP.part.nonpolar>
-28.2692

> <Gold.PLP.part.repulsive>
0.0623

> <Gold.PLP.ligand.clash>
0.0000

> <Gold.PLP.ligand.torsion>
0.9445

> <Gold.PLP.Chemscore.Hbond>
3.3322

> <Gold.PLP.Chemscore.CHOScore>
0.0000

> <Gold.PLP.Chemscore.Metal>
0.0000

> <Gold.Chemscore.Hbonds>
donor molecule, donor type, donor heavy atom, donor atom, acceptor molecule, acceptor atom, score
      L1  H     5    34       P1  1227  1.00
      L1  H     7    35       P1  1227  1.33
      P1  H  3712  3721       L1    10  1.00

> <Gold.PLP.Chemscore.Internal.Correction>
0.5992

