#       Name:                EN300-7127842_i001
#       Creating user name   fsindt
#       Creation time:       Wed Mar  1 12:36:39 2023


#       File generated by GOLD software.
#

@<TRIPOS>MOLECULE
EN300-7127842_i001|amine_1|mol2|10353|dock2
    36    36     1
SMALL
USER_CHARGES


@<TRIPOS>ATOM
      1 C1           1.4024 -12.5409   6.8767 C.3            1 <1>                0.0000
      2 N2           0.3261 -12.7534   7.8477 N.am           1 <1>                0.0000
      3 C3          -0.4734 -13.9801   7.7981 C.3            1 <1>                0.0000
      4 C4           0.4011 -15.1748   8.1836 C.3            1 <1>                0.0000
      5 O5           1.3120 -14.8791   9.2442 O.3            1 <1>                0.0000
      6 C6          -0.3890 -16.4795   8.3911 C.3            1 <1>                0.0000
      7 N7           0.7120 -17.1461   7.6612 N.4            1 <1>                1.0000
      8 C8           1.0575 -15.8759   6.9806 C.3            1 <1>                0.0000
      9 C9           0.0716 -11.8206   8.7865 C.2            1 <1>                0.0000
     10 O10          0.7346 -10.8032   8.8278 O.2            1 <1>                0.0000
     11 O11         -0.9175 -12.0161   9.6788 O.3            1 <1>                0.0000
     12 C12         -1.5094 -10.8326  10.2767 C.3            1 <1>                0.0000
     13 C13         -2.7553 -11.2310  11.0705 C.3            1 <1>                0.0000
     14 C14         -0.4960 -10.1740  11.2147 C.3            1 <1>                0.0000
     15 C15         -1.9008  -9.8460   9.1747 C.3            1 <1>                0.0000
     16 H16          1.0050 -12.0295   6.0000 H              1 <1>                0.0000
     17 H17          2.1848 -11.9317   7.3291 H              1 <1>                0.0000
     18 H18          1.8180 -13.5035   6.5786 H              1 <1>                0.0000
     19 H19         -1.3064 -13.8992   8.4965 H              1 <1>                0.0000
     20 H20         -0.8584 -14.1222   6.7883 H              1 <1>                0.0000
     21 H21         -0.4704 -16.7823   9.4351 H              1 <1>                0.0000
     22 H22         -1.3430 -16.5037   7.8645 H              1 <1>                0.0000
     23 H23          0.5267 -15.7227   6.0409 H              1 <1>                0.0000
     24 H24          2.1299 -15.6993   6.8983 H              1 <1>                0.0000
     25 H25         -2.4765 -11.9339  11.8555 H              1 <1>                0.0000
     26 H26         -3.1996 -10.3425  11.5193 H              1 <1>                0.0000
     27 H27         -3.4773 -11.7002  10.4022 H              1 <1>                0.0000
     28 H28          0.3915  -9.8901  10.6492 H              1 <1>                0.0000
     29 H29         -0.9404  -9.2855  11.6635 H              1 <1>                0.0000
     30 H30         -0.2173 -10.8769  11.9997 H              1 <1>                0.0000
     31 H31         -2.6228 -10.3152   8.5065 H              1 <1>                0.0000
     32 H32         -2.3451  -8.9576   9.6235 H              1 <1>                0.0000
     33 H33         -1.0132  -9.5622   8.6092 H              1 <1>                0.0000
     34 H34          1.8892 -15.6170   9.4840 H              1 <1>                0.0000
     35 H35          1.4452 -17.4763   8.2707 H              1 <1>                0.0000
     36 H36          0.3877 -17.8592   7.0253 H              1 <1>                0.0000
@<TRIPOS>BOND
    1    1    2 1     
    2    1   16 1     
    3    1   17 1     
    4    1   18 1     
    5    2    3 1     
    6    2    9 am    
    7    3    4 1     
    8    3   19 1     
    9    3   20 1     
   10    4    5 1     
   11    4    6 1     
   12    4    8 1     
   13    5   34 1     
   14    6    7 1     
   15    6   21 1     
   16    6   22 1     
   17    7    8 1     
   18    7   35 1     
   19    7   36 1     
   20    8   23 1     
   21    8   24 1     
   22    9   10 2     
   23    9   11 1     
   24   11   12 1     
   25   12   13 1     
   26   12   14 1     
   27   12   15 1     
   28   13   25 1     
   29   13   26 1     
   30   13   27 1     
   31   14   28 1     
   32   14   29 1     
   33   14   30 1     
   34   15   31 1     
   35   15   32 1     
   36   15   33 1     
@<TRIPOS>SUBSTRUCTURE
      1 ****           1
@<TRIPOS>SET
DONOR_HYDROGENS      STATIC     ATOMS    <user>   **** ""
3 34 35 36
ATOM$RED        STATIC     ATOMS    COLORGROUP SYSTEM
3 34 35 36
@<TRIPOS>COMMENT
> <Gold.Version>
2022.2.0

> <Gold.Id.Protein>
3pbl|protein|mol2

> <Gold.Protein.RotatedTorsions>
[ 1303 1298 1297 1294 ] final -138.18 input  179.99 | X-H torsion
[ 2461 2456 2455 2452 ] final -165.84 input   30.03 | X-H torsion
[ 2515 2510 2509 2506 ] final  -86.72 input  -89.99 | X-H torsion
[ 3721 3712 3711 3710 ] final   15.55 input -179.91 | X-H torsion
[ 3841 3832 3831 3830 ] final   22.15 input -179.91 | X-H torsion
[ 3767 3762 3761 3758 ] final   -9.91 input  -89.99 | X-H torsion
[ 2472 2467 2466 2463 ] final  134.05 input  -89.97 | X-H torsion

> <Gold.Protein.ActiveResidues>
 VAL82   VAL86   LEU89   PHE106  VAL107  ASP110  VAL111  MET112  CYS114  THR115 
 CYS181  SER182  ILE183  PHE188  VAL189  ILE190  SER192  SER193  SER196  TRP342 
 PHE345  PHE346  HIS349  VAL350  TYR365  THR369  GLY372  TYR373 

> <Gold.Protein.RotatedAtoms>
    4.4717   -8.5039    4.2707 H   0  0  0  0  0  0  0  0  0  0  0  0  # atno 1303 bound_to 1298
    1.2264   -9.2732    8.3790 H   0  0  0  0  0  0  0  0  0  0  0  0  # atno 2461 bound_to 2456
   -5.4908   -5.1567    8.3353 H   0  0  0  0  0  0  0  0  0  0  0  0  # atno 2472 bound_to 2467
    2.8266   -8.8908    4.5758 H   0  0  0  0  0  0  0  0  0  0  0  0  # atno 2515 bound_to 2510
   -2.4699  -18.0212   14.0177 H   0  0  0  0  0  0  0  0  0  0  0  0  # atno 3721 bound_to 3712
   -5.4028  -22.5940   10.2190 H   0  0  0  0  0  0  0  0  0  0  0  0  # atno 3767 bound_to 3762
    1.9685  -20.7169    9.6211 H   0  0  0  0  0  0  0  0  0  0  0  0  # atno 3841 bound_to 3832
    4.5592  -10.0029    4.9125 LP  0  0  0  0  0  0  0  0  0  0  0  0  # atno 4297 bound_to 1298
    3.3311   -9.6149    3.9085 LP  0  0  0  0  0  0  0  0  0  0  0  0  # atno 4298 bound_to 1298
    2.0482   -8.1416    7.5354 LP  0  0  0  0  0  0  0  0  0  0  0  0  # atno 4299 bound_to 2456
    0.4632   -8.3936    7.2339 LP  0  0  0  0  0  0  0  0  0  0  0  0  # atno 4300 bound_to 2456
    2.1604   -8.6926    6.0532 LP  0  0  0  0  0  0  0  0  0  0  0  0  # atno 4301 bound_to 2510
    2.3096   -7.4154    5.0466 LP  0  0  0  0  0  0  0  0  0  0  0  0  # atno 4302 bound_to 2510
   -3.3420  -16.8283   14.6454 LP  0  0  0  0  0  0  0  0  0  0  0  0  # atno 4306 bound_to 3712
   -3.3341  -17.0922   13.0339 LP  0  0  0  0  0  0  0  0  0  0  0  0  # atno 4307 bound_to 3712
    1.8281  -19.6440    8.4357 LP  0  0  0  0  0  0  0  0  0  0  0  0  # atno 4314 bound_to 3832
    3.1274  -20.6301    8.5141 LP  0  0  0  0  0  0  0  0  0  0  0  0  # atno 4315 bound_to 3832
   -4.7110  -22.0257   11.5848 LP  0  0  0  0  0  0  0  0  0  0  0  0  # atno 4318 bound_to 3762
   -4.0138  -23.2553   10.7670 LP  0  0  0  0  0  0  0  0  0  0  0  0  # atno 4319 bound_to 3762
   -3.9495   -4.8313    7.9053 LP  0  0  0  0  0  0  0  0  0  0  0  0  # atno 4320 bound_to 2467
   -4.2768   -5.4055    9.3985 LP  0  0  0  0  0  0  0  0  0  0  0  0  # atno 4321 bound_to 2467

> <Gold.Score>
     Score     S(PLP)   S(hbond)     S(cho)   S(metal)  DE(clash)   DE(tors)     intcor
     61.35     -50.34       3.99       0.00       0.00       0.00       0.82       0.68

> <Gold.PLP.Fitness>
61.3538

> <Gold.PLP.PLP>
-50.3381

> <Gold.PLP.part.hbond>
-3.5003

> <Gold.PLP.part.metal>
0.0000

> <Gold.PLP.part.buried>
-4.8812

> <Gold.PLP.part.nonpolar>
-42.6973

> <Gold.PLP.part.repulsive>
0.0000

> <Gold.PLP.ligand.clash>
0.0000

> <Gold.PLP.ligand.torsion>
0.8183

> <Gold.PLP.Chemscore.Hbond>
3.9913

> <Gold.PLP.Chemscore.CHOScore>
0.0000

> <Gold.PLP.Chemscore.Metal>
0.0000

> <Gold.Chemscore.Hbonds>
donor molecule, donor type, donor heavy atom, donor atom, acceptor molecule, acceptor atom, score
      L1  H     5    34       P1  1227  0.99
      L1  H     7    35       P1  1227  2.00
      P1  H  2456  2461       L1    10  1.00

> <Gold.PLP.Chemscore.Internal.Correction>
0.6787

