#       Name:                EN300-7127842_i001
#       Creating user name   fsindt
#       Creation time:       Wed Mar  1 12:36:50 2023


#       File generated by GOLD software.
#

@<TRIPOS>MOLECULE
EN300-7127842_i001|amine_1|mol2|10353|dock14
    36    36     1
SMALL
USER_CHARGES


@<TRIPOS>ATOM
      1 C1           0.8116 -12.7401   6.4699 C.3            1 <1>                0.0000
      2 N2           0.2154 -12.9221   7.7957 N.am           1 <1>                0.0000
      3 C3          -0.5531 -14.1334   8.0933 C.3            1 <1>                0.0000
      4 C4           0.3118 -15.0993   8.9055 C.3            1 <1>                0.0000
      5 O5           1.7118 -14.8601   8.7485 O.3            1 <1>                0.0000
      6 C6          -0.1314 -15.2436  10.3727 C.3            1 <1>                0.0000
      7 N7           0.1197 -16.6919  10.2026 N.4            1 <1>                1.0000
      8 C8          -0.0866 -16.5769   8.7396 C.3            1 <1>                0.0000
      9 C9           0.3738 -11.9752   8.7416 C.2            1 <1>                0.0000
     10 O10          1.0111 -10.9705   8.4950 O.2            1 <1>                0.0000
     11 O11         -0.1742 -12.1426   9.9599 O.3            1 <1>                0.0000
     12 C12         -0.5673 -10.9424  10.6765 C.3            1 <1>                0.0000
     13 C13          0.6831 -10.1721  11.1056 C.3            1 <1>                0.0000
     14 C14         -1.4216 -10.0603   9.7640 C.3            1 <1>                0.0000
     15 C15         -1.3773 -11.3303  11.9152 C.3            1 <1>                0.0000
     16 H16          0.1016 -12.2298   5.8192 H              1 <1>                0.0000
     17 H17          1.7184 -12.1417   6.5584 H              1 <1>                0.0000
     18 H18          1.0585 -13.7135   6.0459 H              1 <1>                0.0000
     19 H19         -1.4403 -13.8686   8.6685 H              1 <1>                0.0000
     20 H20         -0.8537 -14.6111   7.1608 H              1 <1>                0.0000
     21 H21          0.5400 -14.7621  11.0836 H              1 <1>                0.0000
     22 H22         -1.1794 -14.9964  10.5412 H              1 <1>                0.0000
     23 H23         -1.1219 -16.7196   8.4296 H              1 <1>                0.0000
     24 H24          0.6196 -17.1607   8.1493 H              1 <1>                0.0000
     25 H25          1.2602  -9.8958  10.2232 H              1 <1>                0.0000
     26 H26          0.3881  -9.2712  11.6435 H              1 <1>                0.0000
     27 H27          1.2918 -10.8005  11.7557 H              1 <1>                0.0000
     28 H28         -2.3124 -10.6090   9.4583 H              1 <1>                0.0000
     29 H29         -1.7166  -9.1594  10.3020 H              1 <1>                0.0000
     30 H30         -0.8445  -9.7840   8.8816 H              1 <1>                0.0000
     31 H31         -0.7686 -11.9587  12.5653 H              1 <1>                0.0000
     32 H32         -1.6723 -10.4294  12.4531 H              1 <1>                0.0000
     33 H33         -2.2681 -11.8790  11.6095 H              1 <1>                0.0000
     34 H34          2.2457 -15.6651   8.7026 H              1 <1>                0.0000
     35 H35          1.0617 -16.9593  10.4459 H              1 <1>                0.0000
     36 H36         -0.5745 -17.2675  10.6551 H              1 <1>                0.0000
@<TRIPOS>BOND
    1    1    2 1     
    2    1   16 1     
    3    1   17 1     
    4    1   18 1     
    5    2    3 1     
    6    2    9 am    
    7    3    4 1     
    8    3   19 1     
    9    3   20 1     
   10    4    5 1     
   11    4    6 1     
   12    4    8 1     
   13    5   34 1     
   14    6    7 1     
   15    6   21 1     
   16    6   22 1     
   17    7    8 1     
   18    7   35 1     
   19    7   36 1     
   20    8   23 1     
   21    8   24 1     
   22    9   10 2     
   23    9   11 1     
   24   11   12 1     
   25   12   13 1     
   26   12   14 1     
   27   12   15 1     
   28   13   25 1     
   29   13   26 1     
   30   13   27 1     
   31   14   28 1     
   32   14   29 1     
   33   14   30 1     
   34   15   31 1     
   35   15   32 1     
   36   15   33 1     
@<TRIPOS>SUBSTRUCTURE
      1 ****           1
@<TRIPOS>SET
DONOR_HYDROGENS      STATIC     ATOMS    <user>   **** ""
3 34 35 36
ATOM$RED        STATIC     ATOMS    COLORGROUP SYSTEM
3 34 35 36
@<TRIPOS>COMMENT
> <Gold.Version>
2022.2.0

> <Gold.Id.Protein>
3pbl|protein|mol2

> <Gold.Protein.RotatedTorsions>
[ 1303 1298 1297 1294 ] final   58.50 input  179.99 | X-H torsion
[ 2461 2456 2455 2452 ] final -150.60 input   30.03 | X-H torsion
[ 2515 2510 2509 2506 ] final  153.33 input  -89.99 | X-H torsion
[ 3721 3712 3711 3710 ] final -103.44 input -179.91 | X-H torsion
[ 3841 3832 3831 3830 ] final   -6.57 input -179.91 | X-H torsion
[ 3767 3762 3761 3758 ] final   -7.03 input  -89.99 | X-H torsion
[ 2472 2467 2466 2463 ] final   -5.11 input  -89.97 | X-H torsion

> <Gold.Protein.ActiveResidues>
 VAL82   VAL86   LEU89   PHE106  VAL107  ASP110  VAL111  MET112  CYS114  THR115 
 CYS181  SER182  ILE183  PHE188  VAL189  ILE190  SER192  SER193  SER196  TRP342 
 PHE345  PHE346  HIS349  VAL350  TYR365  THR369  GLY372  TYR373 

> <Gold.Protein.RotatedAtoms>
    3.9876  -10.2711    4.6200 H   0  0  0  0  0  0  0  0  0  0  0  0  # atno 1303 bound_to 1298
    0.9863   -9.2878    8.3099 H   0  0  0  0  0  0  0  0  0  0  0  0  # atno 2461 bound_to 2456
   -3.7538   -4.8959    8.1420 H   0  0  0  0  0  0  0  0  0  0  0  0  # atno 2472 bound_to 2467
    2.1609   -8.6932    6.0527 H   0  0  0  0  0  0  0  0  0  0  0  0  # atno 2515 bound_to 2510
   -3.1186  -16.8014   14.5825 H   0  0  0  0  0  0  0  0  0  0  0  0  # atno 3721 bound_to 3712
   -5.3817  -22.6297   10.1961 H   0  0  0  0  0  0  0  0  0  0  0  0  # atno 3767 bound_to 3762
    1.6841  -20.4105    9.5229 H   0  0  0  0  0  0  0  0  0  0  0  0  # atno 3841 bound_to 3832
    3.5118   -8.9553    3.7781 LP  0  0  0  0  0  0  0  0  0  0  0  0  # atno 4297 bound_to 1298
    4.8628   -8.8946    4.6934 LP  0  0  0  0  0  0  0  0  0  0  0  0  # atno 4298 bound_to 1298
    2.1358   -8.2914    7.7156 LP  0  0  0  0  0  0  0  0  0  0  0  0  # atno 4299 bound_to 2456
    0.6155   -8.2292    7.1228 LP  0  0  0  0  0  0  0  0  0  0  0  0  # atno 4300 bound_to 2456
    2.3093   -7.4153    5.0472 LP  0  0  0  0  0  0  0  0  0  0  0  0  # atno 4301 bound_to 2510
    2.8266   -8.8905    4.5750 LP  0  0  0  0  0  0  0  0  0  0  0  0  # atno 4302 bound_to 2510
   -3.3199  -17.1189   13.0216 LP  0  0  0  0  0  0  0  0  0  0  0  0  # atno 4306 bound_to 3712
   -2.6073  -18.2099   14.0058 LP  0  0  0  0  0  0  0  0  0  0  0  0  # atno 4307 bound_to 3712
    2.2440  -19.6783    8.2089 LP  0  0  0  0  0  0  0  0  0  0  0  0  # atno 4314 bound_to 3832
    3.0400  -20.9497    8.8544 LP  0  0  0  0  0  0  0  0  0  0  0  0  # atno 4315 bound_to 3832
   -4.7513  -22.0073   11.5680 LP  0  0  0  0  0  0  0  0  0  0  0  0  # atno 4318 bound_to 3762
   -3.9946  -23.2380   10.8067 LP  0  0  0  0  0  0  0  0  0  0  0  0  # atno 4319 bound_to 3762
   -4.5850   -5.4518    9.4329 LP  0  0  0  0  0  0  0  0  0  0  0  0  # atno 4320 bound_to 2467
   -5.3779   -5.0458    8.0642 LP  0  0  0  0  0  0  0  0  0  0  0  0  # atno 4321 bound_to 2467

> <Gold.Score>
     Score     S(PLP)   S(hbond)     S(cho)   S(metal)  DE(clash)   DE(tors)     intcor
     48.91     -41.14       3.37       0.00       0.00       0.01       1.46       0.60

> <Gold.PLP.Fitness>
48.9055

> <Gold.PLP.PLP>
-41.1362

> <Gold.PLP.part.hbond>
-3.0000

> <Gold.PLP.part.metal>
0.0000

> <Gold.PLP.part.buried>
-3.6346

> <Gold.PLP.part.nonpolar>
-35.7749

> <Gold.PLP.part.repulsive>
0.0000

> <Gold.PLP.ligand.clash>
0.0135

> <Gold.PLP.ligand.torsion>
1.4613

> <Gold.PLP.Chemscore.Hbond>
3.3687

> <Gold.PLP.Chemscore.CHOScore>
0.0000

> <Gold.PLP.Chemscore.Metal>
0.0000

> <Gold.Chemscore.Hbonds>
donor molecule, donor type, donor heavy atom, donor atom, acceptor molecule, acceptor atom, score
      L1  H     5    34       P1  1227  0.80
      L1  H     7    35       P1  1227  1.57
      P1  H  2456  2461       L1    10  1.00

> <Gold.PLP.Chemscore.Internal.Correction>
0.5992

