#       Name:                EN300-7127842_i001
#       Creating user name   fsindt
#       Creation time:       Wed Mar  1 12:36:56 2023


#       File generated by GOLD software.
#

@<TRIPOS>MOLECULE
EN300-7127842_i001|amine_1|mol2|10353|dock19
    36    36     1
SMALL
USER_CHARGES


@<TRIPOS>ATOM
      1 C1           1.9096 -18.9661  15.3304 C.3            1 <1>                0.0000
      2 N2           0.6048 -18.7093  14.7158 N.am           1 <1>                0.0000
      3 C3          -0.0478 -17.4103  14.8978 C.3            1 <1>                0.0000
      4 C4           0.4483 -16.4360  13.8277 C.3            1 <1>                0.0000
      5 O5           0.0325 -15.0894  14.0644 O.3            1 <1>                0.0000
      6 C6           1.9484 -16.5745  13.5112 C.3            1 <1>                0.0000
      7 N7           1.5619 -16.4206  12.0912 N.4            1 <1>                1.0000
      8 C8           0.1976 -16.9176  12.3872 C.3            1 <1>                0.0000
      9 C9           0.0046 -19.6681  13.9830 C.2            1 <1>                0.0000
     10 O10         -1.0776 -19.4551  13.4733 O.2            1 <1>                0.0000
     11 O11          0.6043 -20.8618  13.8158 O.3            1 <1>                0.0000
     12 C12         -0.2586 -22.0062  13.5830 C.3            1 <1>                0.0000
     13 C13         -1.4396 -21.9605  14.5548 C.3            1 <1>                0.0000
     14 C14         -0.7798 -21.9679  12.1451 C.3            1 <1>                0.0000
     15 C15          0.5341 -23.2960  13.8041 C.3            1 <1>                0.0000
     16 H16          1.7659 -19.3828  16.3273 H              1 <1>                0.0000
     17 H17          2.4669 -19.6744  14.7174 H              1 <1>                0.0000
     18 H18          2.4667 -18.0320  15.4037 H              1 <1>                0.0000
     19 H19         -1.1274 -17.5302  14.8076 H              1 <1>                0.0000
     20 H20          0.1929 -17.0181  15.8860 H              1 <1>                0.0000
     21 H21          2.5554 -15.7534  13.8925 H              1 <1>                0.0000
     22 H22          2.3590 -17.5553  13.7508 H              1 <1>                0.0000
     23 H23          0.0952 -17.9991  12.2983 H              1 <1>                0.0000
     24 H24         -0.5908 -16.3706  11.8701 H              1 <1>                0.0000
     25 H25         -2.0043 -21.0416  14.3973 H              1 <1>                0.0000
     26 H26         -2.0873 -22.8195  14.3801 H              1 <1>                0.0000
     27 H27         -1.0683 -21.9877  15.5793 H              1 <1>                0.0000
     28 H28          0.0615 -22.0005  11.4527 H              1 <1>                0.0000
     29 H29         -1.4275 -22.8270  11.9704 H              1 <1>                0.0000
     30 H30         -1.3444 -21.0490  11.9876 H              1 <1>                0.0000
     31 H31          0.9053 -23.3233  14.8286 H              1 <1>                0.0000
     32 H32         -0.1137 -24.1550  13.6294 H              1 <1>                0.0000
     33 H33          1.3753 -23.3285  13.1118 H              1 <1>                0.0000
     34 H34          0.2788 -14.4724  13.3617 H              1 <1>                0.0000
     35 H35          1.5710 -15.4600  11.7826 H              1 <1>                0.0000
     36 H36          2.0786 -17.0294  11.4744 H              1 <1>                0.0000
@<TRIPOS>BOND
    1    1    2 1     
    2    1   16 1     
    3    1   17 1     
    4    1   18 1     
    5    2    3 1     
    6    2    9 am    
    7    3    4 1     
    8    3   19 1     
    9    3   20 1     
   10    4    5 1     
   11    4    6 1     
   12    4    8 1     
   13    5   34 1     
   14    6    7 1     
   15    6   21 1     
   16    6   22 1     
   17    7    8 1     
   18    7   35 1     
   19    7   36 1     
   20    8   23 1     
   21    8   24 1     
   22    9   10 2     
   23    9   11 1     
   24   11   12 1     
   25   12   13 1     
   26   12   14 1     
   27   12   15 1     
   28   13   25 1     
   29   13   26 1     
   30   13   27 1     
   31   14   28 1     
   32   14   29 1     
   33   14   30 1     
   34   15   31 1     
   35   15   32 1     
   36   15   33 1     
@<TRIPOS>SUBSTRUCTURE
      1 ****           1
@<TRIPOS>SET
DONOR_HYDROGENS      STATIC     ATOMS    <user>   **** ""
3 34 35 36
ATOM$RED        STATIC     ATOMS    COLORGROUP SYSTEM
3 34 35 36
@<TRIPOS>COMMENT
> <Gold.Version>
2022.2.0

> <Gold.Id.Protein>
3pbl|protein|mol2

> <Gold.Protein.RotatedTorsions>
[ 1303 1298 1297 1294 ] final  109.61 input  179.99 | X-H torsion
[ 2461 2456 2455 2452 ] final -131.73 input   30.03 | X-H torsion
[ 2515 2510 2509 2506 ] final  -22.30 input  -89.99 | X-H torsion
[ 3721 3712 3711 3710 ] final   26.59 input -179.91 | X-H torsion
[ 3841 3832 3831 3830 ] final -151.19 input -179.91 | X-H torsion
[ 3767 3762 3761 3758 ] final  -90.03 input  -89.99 | X-H torsion
[ 2472 2467 2466 2463 ] final   68.11 input  -89.97 | X-H torsion

> <Gold.Protein.ActiveResidues>
 VAL82   VAL86   LEU89   PHE106  VAL107  ASP110  VAL111  MET112  CYS114  THR115 
 CYS181  SER182  ILE183  PHE188  VAL189  ILE190  SER192  SER193  SER196  TRP342 
 PHE345  PHE346  HIS349  VAL350  TYR365  THR369  GLY372  TYR373 

> <Gold.Protein.RotatedAtoms>
    4.6440   -9.9098    4.9360 H   0  0  0  0  0  0  0  0  0  0  0  0  # atno 1303 bound_to 1298
    0.7164   -9.2394    8.1673 H   0  0  0  0  0  0  0  0  0  0  0  0  # atno 2461 bound_to 2456
   -4.7743   -4.8392    7.6730 H   0  0  0  0  0  0  0  0  0  0  0  0  # atno 2472 bound_to 2467
    2.6803   -7.9090    4.4208 H   0  0  0  0  0  0  0  0  0  0  0  0  # atno 2515 bound_to 2510
   -2.4771  -18.0344   13.8517 H   0  0  0  0  0  0  0  0  0  0  0  0  # atno 3721 bound_to 3712
   -5.2246  -21.9199   11.2125 H   0  0  0  0  0  0  0  0  0  0  0  0  # atno 3767 bound_to 3762
    2.6436  -19.7622    8.3483 H   0  0  0  0  0  0  0  0  0  0  0  0  # atno 3841 bound_to 3832
    3.3452   -9.7298    3.9629 LP  0  0  0  0  0  0  0  0  0  0  0  0  # atno 4297 bound_to 1298
    4.3727   -8.4815    4.1925 LP  0  0  0  0  0  0  0  0  0  0  0  0  # atno 4298 bound_to 1298
    2.1573   -8.5057    7.9372 LP  0  0  0  0  0  0  0  0  0  0  0  0  # atno 4299 bound_to 2456
    0.8640   -8.0632    7.0438 LP  0  0  0  0  0  0  0  0  0  0  0  0  # atno 4300 bound_to 2456
    2.5840   -9.2568    5.3373 LP  0  0  0  0  0  0  0  0  0  0  0  0  # atno 4301 bound_to 2510
    2.0323   -7.8335    5.9175 LP  0  0  0  0  0  0  0  0  0  0  0  0  # atno 4302 bound_to 2510
   -3.2593  -16.9566   14.7486 LP  0  0  0  0  0  0  0  0  0  0  0  0  # atno 4306 bound_to 3712
   -3.4085  -16.9487   13.1224 LP  0  0  0  0  0  0  0  0  0  0  0  0  # atno 4307 bound_to 3712
    2.7745  -21.1291    9.1793 LP  0  0  0  0  0  0  0  0  0  0  0  0  # atno 4314 bound_to 3832
    1.4011  -20.2479    9.2408 LP  0  0  0  0  0  0  0  0  0  0  0  0  # atno 4315 bound_to 3832
   -3.9194  -22.8980   11.2935 LP  0  0  0  0  0  0  0  0  0  0  0  0  # atno 4318 bound_to 3762
   -4.9836  -23.0568   10.0652 LP  0  0  0  0  0  0  0  0  0  0  0  0  # atno 4319 bound_to 3762
   -3.6782   -5.1403    8.8453 LP  0  0  0  0  0  0  0  0  0  0  0  0  # atno 4320 bound_to 2467
   -5.2644   -5.4140    9.1207 LP  0  0  0  0  0  0  0  0  0  0  0  0  # atno 4321 bound_to 2467

> <Gold.Score>
     Score     S(PLP)   S(hbond)     S(cho)   S(metal)  DE(clash)   DE(tors)     intcor
     40.35     -29.83       4.00       0.00       0.00       0.00       1.04       0.60

> <Gold.PLP.Fitness>
40.3549

> <Gold.PLP.PLP>
-29.8273

> <Gold.PLP.part.hbond>
-3.0000

> <Gold.PLP.part.metal>
0.0000

> <Gold.PLP.part.buried>
-0.3137

> <Gold.PLP.part.nonpolar>
-27.6175

> <Gold.PLP.part.repulsive>
0.0000

> <Gold.PLP.ligand.clash>
0.0000

> <Gold.PLP.ligand.torsion>
1.0358

> <Gold.PLP.Chemscore.Hbond>
4.0000

> <Gold.PLP.Chemscore.CHOScore>
0.0000

> <Gold.PLP.Chemscore.Metal>
0.0000

> <Gold.Chemscore.Hbonds>
donor molecule, donor type, donor heavy atom, donor atom, acceptor molecule, acceptor atom, score
      L1  H     7    36       P1  1227  2.00
      P1  H  2305  2313       L1     5  1.00
      P1  H  3712  3721       L1    10  1.00

> <Gold.PLP.Chemscore.Internal.Correction>
0.5992

