#       Name:                EN300-7127842_i001
#       Creating user name   fsindt
#       Creation time:       Wed Mar  1 12:36:48 2023


#       File generated by GOLD software.
#

@<TRIPOS>MOLECULE
EN300-7127842_i001|amine_1|mol2|10353|dock12
    36    36     1
SMALL
USER_CHARGES


@<TRIPOS>ATOM
      1 C1           1.4235 -19.2597  15.2780 C.3            1 <1>                0.0000
      2 N2           0.3117 -18.9463  14.3770 N.am           1 <1>                0.0000
      3 C3           0.0339 -17.5546  14.0128 C.3            1 <1>                0.0000
      4 C4           1.3468 -16.8424  13.6816 C.3            1 <1>                0.0000
      5 O5           1.9346 -16.2018  14.8157 O.3            1 <1>                0.0000
      6 C6           2.3347 -17.7066  12.8771 C.3            1 <1>                0.0000
      7 N7           2.5982 -16.4880  12.0802 N.4            1 <1>                1.0000
      8 C8           1.2665 -15.9431  12.4348 C.3            1 <1>                0.0000
      9 C9          -0.4557 -19.9381  13.8830 C.2            1 <1>                0.0000
     10 O10         -1.3778 -19.6781  13.1357 O.2            1 <1>                0.0000
     11 O11         -0.2003 -21.2169  14.2177 O.3            1 <1>                0.0000
     12 C12         -0.8549 -22.2473  13.4314 C.3            1 <1>                0.0000
     13 C13         -2.3652 -22.1876  13.6684 C.3            1 <1>                0.0000
     14 C14         -0.5622 -22.0193  11.9471 C.3            1 <1>                0.0000
     15 C15         -0.3269 -23.6209  13.8502 C.3            1 <1>                0.0000
     16 H16          1.0690 -19.2520  16.3087 H              1 <1>                0.0000
     17 H17          1.8192 -20.2464  15.0372 H              1 <1>                0.0000
     18 H18          2.2094 -18.5139  15.1584 H              1 <1>                0.0000
     19 H19         -0.6219 -17.5308  13.1425 H              1 <1>                0.0000
     20 H20         -0.4522 -17.0506  14.8481 H              1 <1>                0.0000
     21 H21          3.1931 -18.0467  13.4563 H              1 <1>                0.0000
     22 H22          1.8580 -18.5068  12.3112 H              1 <1>                0.0000
     23 H23          0.4764 -16.2274  11.7396 H              1 <1>                0.0000
     24 H24          1.2739 -14.8765  12.6589 H              1 <1>                0.0000
     25 H25         -2.7413 -21.2090  13.3701 H              1 <1>                0.0000
     26 H26         -2.8565 -22.9611  13.0782 H              1 <1>                0.0000
     27 H27         -2.5738 -22.3500  14.7259 H              1 <1>                0.0000
     28 H28          0.5138 -22.0619  11.7781 H              1 <1>                0.0000
     29 H29         -1.0535 -22.7928  11.3569 H              1 <1>                0.0000
     30 H30         -0.9383 -21.0407  11.6488 H              1 <1>                0.0000
     31 H31         -0.5354 -23.7834  14.9076 H              1 <1>                0.0000
     32 H32         -0.8182 -24.3944  13.2600 H              1 <1>                0.0000
     33 H33          0.7491 -23.6635  13.6813 H              1 <1>                0.0000
     34 H34          2.1740 -16.8083  15.5298 H              1 <1>                0.0000
     35 H35          3.3584 -15.9348  12.4467 H              1 <1>                0.0000
     36 H36          2.6979 -16.6765  11.0941 H              1 <1>                0.0000
@<TRIPOS>BOND
    1    1    2 1     
    2    1   16 1     
    3    1   17 1     
    4    1   18 1     
    5    2    3 1     
    6    2    9 am    
    7    3    4 1     
    8    3   19 1     
    9    3   20 1     
   10    4    5 1     
   11    4    6 1     
   12    4    8 1     
   13    5   34 1     
   14    6    7 1     
   15    6   21 1     
   16    6   22 1     
   17    7    8 1     
   18    7   35 1     
   19    7   36 1     
   20    8   23 1     
   21    8   24 1     
   22    9   10 2     
   23    9   11 1     
   24   11   12 1     
   25   12   13 1     
   26   12   14 1     
   27   12   15 1     
   28   13   25 1     
   29   13   26 1     
   30   13   27 1     
   31   14   28 1     
   32   14   29 1     
   33   14   30 1     
   34   15   31 1     
   35   15   32 1     
   36   15   33 1     
@<TRIPOS>SUBSTRUCTURE
      1 ****           1
@<TRIPOS>SET
DONOR_HYDROGENS      STATIC     ATOMS    <user>   **** ""
3 34 35 36
ATOM$RED        STATIC     ATOMS    COLORGROUP SYSTEM
3 34 35 36
@<TRIPOS>COMMENT
> <Gold.Version>
2022.2.0

> <Gold.Id.Protein>
3pbl|protein|mol2

> <Gold.Protein.RotatedTorsions>
[ 1303 1298 1297 1294 ] final  111.03 input  179.99 | X-H torsion
[ 2461 2456 2455 2452 ] final -123.54 input   30.03 | X-H torsion
[ 2515 2510 2509 2506 ] final   66.47 input  -89.99 | X-H torsion
[ 3721 3712 3711 3710 ] final   49.58 input -179.91 | X-H torsion
[ 3841 3832 3831 3830 ] final   40.95 input -179.91 | X-H torsion
[ 3767 3762 3761 3758 ] final  144.68 input  -89.99 | X-H torsion
[ 2472 2467 2466 2463 ] final -173.88 input  -89.97 | X-H torsion

> <Gold.Protein.ActiveResidues>
 VAL82   VAL86   LEU89   PHE106  VAL107  ASP110  VAL111  MET112  CYS114  THR115 
 CYS181  SER182  ILE183  PHE188  VAL189  ILE190  SER192  SER193  SER196  TRP342 
 PHE345  PHE346  HIS349  VAL350  TYR365  THR369  GLY372  TYR373 

> <Gold.Protein.RotatedAtoms>
    4.6586   -9.8918    4.9391 H   0  0  0  0  0  0  0  0  0  0  0  0  # atno 1303 bound_to 1298
    0.6154   -9.1965    8.0892 H   0  0  0  0  0  0  0  0  0  0  0  0  # atno 2461 bound_to 2456
   -5.2859   -5.4085    9.0966 H   0  0  0  0  0  0  0  0  0  0  0  0  # atno 2472 bound_to 2467
    2.1193   -7.5027    5.5427 H   0  0  0  0  0  0  0  0  0  0  0  0  # atno 2515 bound_to 2510
   -2.5419  -17.9730   13.5182 H   0  0  0  0  0  0  0  0  0  0  0  0  # atno 3721 bound_to 3712
   -3.9093  -22.9571   11.2302 H   0  0  0  0  0  0  0  0  0  0  0  0  # atno 3767 bound_to 3762
    2.2107  -20.8615    9.6006 H   0  0  0  0  0  0  0  0  0  0  0  0  # atno 3841 bound_to 3832
    3.3493   -9.7501    3.9736 LP  0  0  0  0  0  0  0  0  0  0  0  0  # atno 4297 bound_to 1298
    4.3540   -8.4792    4.1787 LP  0  0  0  0  0  0  0  0  0  0  0  0  # atno 4298 bound_to 1298
    2.1359   -8.6034    8.0273 LP  0  0  0  0  0  0  0  0  0  0  0  0  # atno 4299 bound_to 2456
    0.9863   -8.0084    7.0317 LP  0  0  0  0  0  0  0  0  0  0  0  0  # atno 4300 bound_to 2456
    2.8094   -8.3964    4.3633 LP  0  0  0  0  0  0  0  0  0  0  0  0  # atno 4301 bound_to 2510
    2.3681   -9.1004    5.7691 LP  0  0  0  0  0  0  0  0  0  0  0  0  # atno 4302 bound_to 2510
   -3.0706  -17.2687   14.8607 LP  0  0  0  0  0  0  0  0  0  0  0  0  # atno 4306 bound_to 3712
   -3.5224  -16.7075   13.3953 LP  0  0  0  0  0  0  0  0  0  0  0  0  # atno 4307 bound_to 3712
    1.6077  -19.7232    8.6431 LP  0  0  0  0  0  0  0  0  0  0  0  0  # atno 4314 bound_to 3832
    3.0679  -20.3839    8.3305 LP  0  0  0  0  0  0  0  0  0  0  0  0  # atno 4315 bound_to 3832
   -5.0518  -23.0030   10.0643 LP  0  0  0  0  0  0  0  0  0  0  0  0  # atno 4318 bound_to 3762
   -5.1659  -21.9151   11.2768 LP  0  0  0  0  0  0  0  0  0  0  0  0  # atno 4319 bound_to 3762
   -4.7425   -4.8332    7.6683 LP  0  0  0  0  0  0  0  0  0  0  0  0  # atno 4320 bound_to 2467
   -3.6887   -5.1519    8.8743 LP  0  0  0  0  0  0  0  0  0  0  0  0  # atno 4321 bound_to 2467

> <Gold.Score>
     Score     S(PLP)   S(hbond)     S(cho)   S(metal)  DE(clash)   DE(tors)     intcor
     41.35     -31.69       3.70       0.00       0.00       0.06       0.99       0.60

> <Gold.PLP.Fitness>
41.3473

> <Gold.PLP.PLP>
-31.6949

> <Gold.PLP.part.hbond>
-3.0000

> <Gold.PLP.part.metal>
0.0000

> <Gold.PLP.part.buried>
-1.9474

> <Gold.PLP.part.nonpolar>
-27.2577

> <Gold.PLP.part.repulsive>
0.0000

> <Gold.PLP.ligand.clash>
0.0646

> <Gold.PLP.ligand.torsion>
0.9887

> <Gold.PLP.Chemscore.Hbond>
3.6978

> <Gold.PLP.Chemscore.CHOScore>
0.0000

> <Gold.PLP.Chemscore.Metal>
0.0000

> <Gold.Chemscore.Hbonds>
donor molecule, donor type, donor heavy atom, donor atom, acceptor molecule, acceptor atom, score
      L1  H     7    36       P1  1227  2.00
      P1  H  2305  2313       L1     5  0.70
      P1  H  3712  3721       L1    10  1.00

> <Gold.PLP.Chemscore.Internal.Correction>
0.6008

