#       Name:                EN300-7127842_i001
#       Creating user name   fsindt
#       Creation time:       Wed Mar  1 12:36:46 2023


#       File generated by GOLD software.
#

@<TRIPOS>MOLECULE
EN300-7127842_i001|amine_1|mol2|10353|dock10
    36    36     1
SMALL
USER_CHARGES


@<TRIPOS>ATOM
      1 C1          -0.3651 -16.7162  14.8190 C.3            1 <1>                0.0000
      2 N2           0.4610 -17.9255  14.7830 N.am           1 <1>                0.0000
      3 C3           1.8884 -17.8285  14.4677 C.3            1 <1>                0.0000
      4 C4           2.0613 -17.4844  12.9870 C.3            1 <1>                0.0000
      5 O5           1.4769 -18.4561  12.1174 O.3            1 <1>                0.0000
      6 C6           1.6812 -16.0337  12.6396 C.3            1 <1>                0.0000
      7 N7           2.8884 -16.0268  11.7841 N.4            1 <1>                1.0000
      8 C8           3.5014 -17.0976  12.6049 C.3            1 <1>                0.0000
      9 C9          -0.0921 -19.1274  15.0401 C.2            1 <1>                0.0000
     10 O10         -1.2759 -19.2081  15.3017 O.2            1 <1>                0.0000
     11 O11          0.6673 -20.2387  15.0071 O.3            1 <1>                0.0000
     12 C12          0.0095 -21.4755  14.6249 C.3            1 <1>                0.0000
     13 C13         -0.8066 -21.2466  13.3511 C.3            1 <1>                0.0000
     14 C14          1.0626 -22.5553  14.3687 C.3            1 <1>                0.0000
     15 C15         -0.9209 -21.9276  15.7522 C.3            1 <1>                0.0000
     16 H16         -0.7828 -16.5320  13.8292 H              1 <1>                0.0000
     17 H17         -1.1751 -16.8507  15.5358 H              1 <1>                0.0000
     18 H18          0.2480 -15.8662  15.1186 H              1 <1>                0.0000
     19 H19          2.3429 -17.0477  15.0776 H              1 <1>                0.0000
     20 H20          2.3726 -18.7821  14.6781 H              1 <1>                0.0000
     21 H21          0.7481 -15.9455  12.0831 H              1 <1>                0.0000
     22 H22          1.7390 -15.3498  13.4863 H              1 <1>                0.0000
     23 H23          4.0921 -16.7254  13.4421 H              1 <1>                0.0000
     24 H24          4.0215 -17.8560  12.0199 H              1 <1>                0.0000
     25 H25         -0.1438 -20.9244  12.5480 H              1 <1>                0.0000
     26 H26         -1.3004 -22.1750  13.0643 H              1 <1>                0.0000
     27 H27         -1.5570 -20.4773  13.5336 H              1 <1>                0.0000
     28 H28          1.6440 -22.7184  15.2762 H              1 <1>                0.0000
     29 H29          0.5688 -23.4837  14.0819 H              1 <1>                0.0000
     30 H30          1.7254 -22.2331  13.5657 H              1 <1>                0.0000
     31 H31         -1.6713 -21.1584  15.9347 H              1 <1>                0.0000
     32 H32         -1.4148 -22.8560  15.4654 H              1 <1>                0.0000
     33 H33         -0.3395 -22.0907  16.6597 H              1 <1>                0.0000
     34 H34          1.8230 -18.4348  11.2147 H              1 <1>                0.0000
     35 H35          2.7009 -16.3180  10.8363 H              1 <1>                0.0000
     36 H36          3.3966 -15.1562  11.8274 H              1 <1>                0.0000
@<TRIPOS>BOND
    1    1    2 1     
    2    1   16 1     
    3    1   17 1     
    4    1   18 1     
    5    2    3 1     
    6    2    9 am    
    7    3    4 1     
    8    3   19 1     
    9    3   20 1     
   10    4    5 1     
   11    4    6 1     
   12    4    8 1     
   13    5   34 1     
   14    6    7 1     
   15    6   21 1     
   16    6   22 1     
   17    7    8 1     
   18    7   35 1     
   19    7   36 1     
   20    8   23 1     
   21    8   24 1     
   22    9   10 2     
   23    9   11 1     
   24   11   12 1     
   25   12   13 1     
   26   12   14 1     
   27   12   15 1     
   28   13   25 1     
   29   13   26 1     
   30   13   27 1     
   31   14   28 1     
   32   14   29 1     
   33   14   30 1     
   34   15   31 1     
   35   15   32 1     
   36   15   33 1     
@<TRIPOS>SUBSTRUCTURE
      1 ****           1
@<TRIPOS>SET
DONOR_HYDROGENS      STATIC     ATOMS    <user>   **** ""
3 34 35 36
ATOM$RED        STATIC     ATOMS    COLORGROUP SYSTEM
3 34 35 36
@<TRIPOS>COMMENT
> <Gold.Version>
2022.2.0

> <Gold.Id.Protein>
3pbl|protein|mol2

> <Gold.Protein.RotatedTorsions>
[ 1303 1298 1297 1294 ] final   40.84 input  179.99 | X-H torsion
[ 2461 2456 2455 2452 ] final -173.70 input   30.03 | X-H torsion
[ 2515 2510 2509 2506 ] final   89.84 input  -89.99 | X-H torsion
[ 3721 3712 3711 3710 ] final    7.42 input -179.91 | X-H torsion
[ 3841 3832 3831 3830 ] final  -58.22 input -179.91 | X-H torsion
[ 3767 3762 3761 3758 ] final  -80.59 input  -89.99 | X-H torsion
[ 2472 2467 2466 2463 ] final   24.38 input  -89.97 | X-H torsion

> <Gold.Protein.ActiveResidues>
 VAL82   VAL86   LEU89   PHE106  VAL107  ASP110  VAL111  MET112  CYS114  THR115 
 CYS181  SER182  ILE183  PHE188  VAL189  ILE190  SER192  SER193  SER196  TRP342 
 PHE345  PHE346  HIS349  VAL350  TYR365  THR369  GLY372  TYR373 

> <Gold.Protein.RotatedAtoms>
    3.7573  -10.2395    4.4477 H   0  0  0  0  0  0  0  0  0  0  0  0  # atno 1303 bound_to 1298
    1.3517   -9.2470    8.3966 H   0  0  0  0  0  0  0  0  0  0  0  0  # atno 2461 bound_to 2456
   -4.0851   -4.8111    7.8054 H   0  0  0  0  0  0  0  0  0  0  0  0  # atno 2472 bound_to 2467
    2.0440   -7.7319    5.8384 H   0  0  0  0  0  0  0  0  0  0  0  0  # atno 2515 bound_to 2510
   -2.4748  -17.9940   14.1373 H   0  0  0  0  0  0  0  0  0  0  0  0  # atno 3721 bound_to 3712
   -5.3184  -21.9445   11.0914 H   0  0  0  0  0  0  0  0  0  0  0  0  # atno 3767 bound_to 3762
    1.6048  -19.8281    9.0505 H   0  0  0  0  0  0  0  0  0  0  0  0  # atno 3841 bound_to 3832
    3.6938   -8.7339    3.8187 LP  0  0  0  0  0  0  0  0  0  0  0  0  # atno 4297 bound_to 1298
    4.9113   -9.1476    4.8252 LP  0  0  0  0  0  0  0  0  0  0  0  0  # atno 4298 bound_to 1298
    1.9804   -8.0765    7.4468 LP  0  0  0  0  0  0  0  0  0  0  0  0  # atno 4299 bound_to 2456
    0.4057   -8.4848    7.3050 LP  0  0  0  0  0  0  0  0  0  0  0  0  # atno 4300 bound_to 2456
    2.7215   -8.0254    4.3821 LP  0  0  0  0  0  0  0  0  0  0  0  0  # atno 4301 bound_to 2510
    2.5314   -9.2421    5.4545 LP  0  0  0  0  0  0  0  0  0  0  0  0  # atno 4302 bound_to 2510
   -3.3970  -16.7468   14.5519 LP  0  0  0  0  0  0  0  0  0  0  0  0  # atno 4306 bound_to 3712
   -3.2734  -17.2051   12.9894 LP  0  0  0  0  0  0  0  0  0  0  0  0  # atno 4307 bound_to 3712
    2.9313  -20.1508    8.2064 LP  0  0  0  0  0  0  0  0  0  0  0  0  # atno 4314 bound_to 3832
    2.4442  -21.1500    9.4026 LP  0  0  0  0  0  0  0  0  0  0  0  0  # atno 4315 bound_to 3832
   -3.9529  -22.7868   11.3963 LP  0  0  0  0  0  0  0  0  0  0  0  0  # atno 4318 bound_to 3762
   -4.8563  -23.1435   10.0835 LP  0  0  0  0  0  0  0  0  0  0  0  0  # atno 4319 bound_to 3762
   -4.1218   -5.3674    9.3401 LP  0  0  0  0  0  0  0  0  0  0  0  0  # atno 4320 bound_to 2467
   -5.5098   -5.2150    8.4935 LP  0  0  0  0  0  0  0  0  0  0  0  0  # atno 4321 bound_to 2467

> <Gold.Score>
     Score     S(PLP)   S(hbond)     S(cho)   S(metal)  DE(clash)   DE(tors)     intcor
     45.61     -34.31       4.00       0.00       0.00       0.00       0.65       0.60

> <Gold.PLP.Fitness>
45.6092

> <Gold.PLP.PLP>
-34.3129

> <Gold.PLP.part.hbond>
-3.0000

> <Gold.PLP.part.metal>
0.0000

> <Gold.PLP.part.buried>
-1.9380

> <Gold.PLP.part.nonpolar>
-29.6554

> <Gold.PLP.part.repulsive>
0.0646

> <Gold.PLP.ligand.clash>
0.0000

> <Gold.PLP.ligand.torsion>
0.6523

> <Gold.PLP.Chemscore.Hbond>
4.0000

> <Gold.PLP.Chemscore.CHOScore>
0.0000

> <Gold.PLP.Chemscore.Metal>
0.0000

> <Gold.Chemscore.Hbonds>
donor molecule, donor type, donor heavy atom, donor atom, acceptor molecule, acceptor atom, score
      L1  H     5    34       P1  1227  1.00
      L1  H     7    35       P1  1227  2.00
      P1  H  3712  3721       L1    10  1.00

> <Gold.PLP.Chemscore.Internal.Correction>
0.6008

