#       Name:                EN300-7127842_i001
#       Creating user name   fsindt
#       Creation time:       Wed Mar  1 12:36:53 2023


#       File generated by GOLD software.
#

@<TRIPOS>MOLECULE
EN300-7127842_i001|amine_1|mol2|10353|dock17
    36    36     1
SMALL
USER_CHARGES


@<TRIPOS>ATOM
      1 C1           0.5881 -19.3258  13.8992 C.3            1 <1>                0.0000
      2 N2          -0.1955 -20.3099  13.1482 N.am           1 <1>                0.0000
      3 C3          -0.9312 -19.8999  11.9495 C.3            1 <1>                0.0000
      4 C4          -0.0501 -18.9827  11.0992 C.3            1 <1>                0.0000
      5 O5           1.2791 -19.4814  10.9364 O.3            1 <1>                0.0000
      6 C6          -0.7100 -18.5365   9.7819 C.3            1 <1>                0.0000
      7 N7          -0.1487 -17.1979  10.0694 N.4            1 <1>                1.0000
      8 C8          -0.1094 -17.5029  11.5190 C.3            1 <1>                0.0000
      9 C9          -0.2395 -21.5925  13.5601 C.2            1 <1>                0.0000
     10 O10          0.3707 -21.9327  14.5542 O.2            1 <1>                0.0000
     11 O11         -0.9596 -22.4967  12.8698 O.3            1 <1>                0.0000
     12 C12         -1.5262 -23.6016  13.6225 C.3            1 <1>                0.0000
     13 C13         -2.2621 -23.0588  14.8492 C.3            1 <1>                0.0000
     14 C14         -2.5088 -24.3710  12.7374 C.3            1 <1>                0.0000
     15 C15         -0.4046 -24.5392  14.0741 C.3            1 <1>                0.0000
     16 H16         -0.0401 -18.8680  14.6633 H              1 <1>                0.0000
     17 H17          1.4349 -19.8215  14.3739 H              1 <1>                0.0000
     18 H18          0.9523 -18.5560  13.2189 H              1 <1>                0.0000
     19 H19         -1.2025 -20.7824  11.3701 H              1 <1>                0.0000
     20 H20         -1.8350 -19.3658  12.2429 H              1 <1>                0.0000
     21 H21         -0.2861 -19.0094   8.8961 H              1 <1>                0.0000
     22 H22         -1.7992 -18.5698   9.8032 H              1 <1>                0.0000
     23 H23         -1.0231 -17.2341  12.0492 H              1 <1>                0.0000
     24 H24          0.7929 -17.1493  12.0178 H              1 <1>                0.0000
     25 H25         -3.0610 -22.3909  14.5274 H              1 <1>                0.0000
     26 H26         -2.6873 -23.8883  15.4142 H              1 <1>                0.0000
     27 H27         -1.5621 -22.5107  15.4798 H              1 <1>                0.0000
     28 H28         -1.9845 -24.7577  11.8635 H              1 <1>                0.0000
     29 H29         -2.9340 -25.2004  13.3025 H              1 <1>                0.0000
     30 H30         -3.3077 -23.7030  12.4157 H              1 <1>                0.0000
     31 H31          0.2954 -23.9911  14.7047 H              1 <1>                0.0000
     32 H32         -0.8299 -25.3686  14.6392 H              1 <1>                0.0000
     33 H33          0.1196 -24.9259  13.2002 H              1 <1>                0.0000
     34 H34          1.9563 -18.7919  10.9002 H              1 <1>                0.0000
     35 H35          0.7689 -17.0623   9.6722 H              1 <1>                0.0000
     36 H36         -0.7834 -16.4476   9.8408 H              1 <1>                0.0000
@<TRIPOS>BOND
    1    1    2 1     
    2    1   16 1     
    3    1   17 1     
    4    1   18 1     
    5    2    3 1     
    6    2    9 am    
    7    3    4 1     
    8    3   19 1     
    9    3   20 1     
   10    4    5 1     
   11    4    6 1     
   12    4    8 1     
   13    5   34 1     
   14    6    7 1     
   15    6   21 1     
   16    6   22 1     
   17    7    8 1     
   18    7   35 1     
   19    7   36 1     
   20    8   23 1     
   21    8   24 1     
   22    9   10 2     
   23    9   11 1     
   24   11   12 1     
   25   12   13 1     
   26   12   14 1     
   27   12   15 1     
   28   13   25 1     
   29   13   26 1     
   30   13   27 1     
   31   14   28 1     
   32   14   29 1     
   33   14   30 1     
   34   15   31 1     
   35   15   32 1     
   36   15   33 1     
@<TRIPOS>SUBSTRUCTURE
      1 ****           1
@<TRIPOS>SET
DONOR_HYDROGENS      STATIC     ATOMS    <user>   **** ""
3 34 35 36
ATOM$RED        STATIC     ATOMS    COLORGROUP SYSTEM
3 34 35 36
@<TRIPOS>COMMENT
> <Gold.Version>
2022.2.0

> <Gold.Id.Protein>
3pbl|protein|mol2

> <Gold.Protein.RotatedTorsions>
[ 1303 1298 1297 1294 ] final -114.78 input  179.99 | X-H torsion
[ 2461 2456 2455 2452 ] final   -2.14 input   30.03 | X-H torsion
[ 2515 2510 2509 2506 ] final  125.03 input  -89.99 | X-H torsion
[ 3721 3712 3711 3710 ] final  158.58 input -179.91 | X-H torsion
[ 3841 3832 3831 3830 ] final  -16.13 input -179.91 | X-H torsion
[ 3767 3762 3761 3758 ] final  159.76 input  -89.99 | X-H torsion
[ 2472 2467 2466 2463 ] final  173.66 input  -89.97 | X-H torsion

> <Gold.Protein.ActiveResidues>
 VAL82   VAL86   LEU89   PHE106  VAL107  ASP110  VAL111  MET112  CYS114  THR115 
 CYS181  SER182  ILE183  PHE188  VAL189  ILE190  SER192  SER193  SER196  TRP342 
 PHE345  PHE346  HIS349  VAL350  TYR365  THR369  GLY372  TYR373 

> <Gold.Protein.RotatedAtoms>
    4.1613   -8.4865    4.0482 H   0  0  0  0  0  0  0  0  0  0  0  0  # atno 1303 bound_to 1298
    1.0078   -8.0000    7.0309 H   0  0  0  0  0  0  0  0  0  0  0  0  # atno 2461 bound_to 2456
   -5.4003   -5.3623    8.9335 H   0  0  0  0  0  0  0  0  0  0  0  0  # atno 2472 bound_to 2467
    2.0518   -8.2465    6.0830 H   0  0  0  0  0  0  0  0  0  0  0  0  # atno 2515 bound_to 2510
   -3.2490  -16.7758   13.2820 H   0  0  0  0  0  0  0  0  0  0  0  0  # atno 3721 bound_to 3712
   -3.9540  -22.7822   11.3995 H   0  0  0  0  0  0  0  0  0  0  0  0  # atno 3767 bound_to 3762
    1.6233  -20.2967    9.4586 H   0  0  0  0  0  0  0  0  0  0  0  0  # atno 3841 bound_to 3832
    4.7847   -9.6964    4.9503 LP  0  0  0  0  0  0  0  0  0  0  0  0  # atno 4297 bound_to 1298
    3.4161   -9.9387    4.0932 LP  0  0  0  0  0  0  0  0  0  0  0  0  # atno 4298 bound_to 1298
    0.5996   -9.1878    8.0749 LP  0  0  0  0  0  0  0  0  0  0  0  0  # atno 4299 bound_to 2456
    2.1304   -8.6201    8.0422 LP  0  0  0  0  0  0  0  0  0  0  0  0  # atno 4300 bound_to 2456
    2.5063   -7.5790    4.6639 LP  0  0  0  0  0  0  0  0  0  0  0  0  # atno 4301 bound_to 2510
    2.7388   -9.1737    4.9279 LP  0  0  0  0  0  0  0  0  0  0  0  0  # atno 4302 bound_to 2510
   -2.6389  -18.2036   13.6904 LP  0  0  0  0  0  0  0  0  0  0  0  0  # atno 4306 bound_to 3712
   -3.1378  -17.1547   14.8383 LP  0  0  0  0  0  0  0  0  0  0  0  0  # atno 4307 bound_to 3712
    2.3884  -19.7306    8.1663 LP  0  0  0  0  0  0  0  0  0  0  0  0  # atno 4314 bound_to 3832
    2.9658  -21.0289    8.9712 LP  0  0  0  0  0  0  0  0  0  0  0  0  # atno 4315 bound_to 3832
   -4.8513  -23.1466   10.0846 LP  0  0  0  0  0  0  0  0  0  0  0  0  # atno 4318 bound_to 3762
   -5.3218  -21.9464   11.0871 LP  0  0  0  0  0  0  0  0  0  0  0  0  # atno 4319 bound_to 3762
   -4.5396   -4.8083    7.6612 LP  0  0  0  0  0  0  0  0  0  0  0  0  # atno 4320 bound_to 2467
   -3.7772   -5.2230    9.0445 LP  0  0  0  0  0  0  0  0  0  0  0  0  # atno 4321 bound_to 2467

> <Gold.Score>
     Score     S(PLP)   S(hbond)     S(cho)   S(metal)  DE(clash)   DE(tors)     intcor
     41.28     -31.16       3.75       0.00       0.00       0.00       0.87       0.60

> <Gold.PLP.Fitness>
41.2840

> <Gold.PLP.PLP>
-31.1625

> <Gold.PLP.part.hbond>
-3.0000

> <Gold.PLP.part.metal>
0.0000

> <Gold.PLP.part.buried>
-4.5173

> <Gold.PLP.part.nonpolar>
-24.5466

> <Gold.PLP.part.repulsive>
0.0000

> <Gold.PLP.ligand.clash>
0.0000

> <Gold.PLP.ligand.torsion>
0.8669

> <Gold.PLP.Chemscore.Hbond>
3.7520

> <Gold.PLP.Chemscore.CHOScore>
0.0000

> <Gold.PLP.Chemscore.Metal>
0.0000

> <Gold.Chemscore.Hbonds>
donor molecule, donor type, donor heavy atom, donor atom, acceptor molecule, acceptor atom, score
      L1  H     5    34       P1  1227  0.75
      L1  H     7    35       P1  1227  2.00
      P1  H  3832  3841       L1     5  1.00

> <Gold.PLP.Chemscore.Internal.Correction>
0.5992

