#       Name:                EN300-7127842_i001
#       Creating user name   fsindt
#       Creation time:       Wed Mar  1 12:36:51 2023


#       File generated by GOLD software.
#

@<TRIPOS>MOLECULE
EN300-7127842_i001|amine_1|mol2|10353|dock15
    36    36     1
SMALL
USER_CHARGES


@<TRIPOS>ATOM
      1 C1          -0.2762 -18.8197  15.9519 C.3            1 <1>                0.0000
      2 N2           0.7031 -18.8599  14.8631 N.am           1 <1>                0.0000
      3 C3           1.6240 -17.7379  14.6644 C.3            1 <1>                0.0000
      4 C4           0.9961 -16.7270  13.7029 C.3            1 <1>                0.0000
      5 O5           0.1445 -15.7869  14.3610 O.3            1 <1>                0.0000
      6 C6           2.0063 -16.0788  12.7389 C.3            1 <1>                0.0000
      7 N7           0.9715 -16.2520  11.6955 N.4            1 <1>                1.0000
      8 C8           0.3628 -17.3691  12.4554 C.3            1 <1>                0.0000
      9 C9           0.7570 -19.9291  14.0442 C.2            1 <1>                0.0000
     10 O10          1.5693 -19.9624  13.1412 O.2            1 <1>                0.0000
     11 O11         -0.0892 -20.9601  14.2270 O.3            1 <1>                0.0000
     12 C12          0.3063 -22.2434  13.6746 C.3            1 <1>                0.0000
     13 C13         -0.6153 -23.3379  14.2167 C.3            1 <1>                0.0000
     14 C14          0.2001 -22.1967  12.1491 C.3            1 <1>                0.0000
     15 C15          1.7509 -22.5480  14.0763 C.3            1 <1>                0.0000
     16 H16         -1.1989 -18.3631  15.5939 H              1 <1>                0.0000
     17 H17         -0.4816 -19.8342  16.2935 H              1 <1>                0.0000
     18 H18          0.1234 -18.2320  16.7784 H              1 <1>                0.0000
     19 H19          1.8204 -17.2552  15.6217 H              1 <1>                0.0000
     20 H20          2.5600 -18.1061  14.2442 H              1 <1>                0.0000
     21 H21          2.2270 -15.0366  12.9698 H              1 <1>                0.0000
     22 H22          2.9016 -16.6777  12.5732 H              1 <1>                0.0000
     23 H23          0.7772 -18.3463  12.2072 H              1 <1>                0.0000
     24 H24         -0.7271 -17.3562  12.4577 H              1 <1>                0.0000
     25 H25         -1.6444 -23.1209  13.9306 H              1 <1>                0.0000
     26 H26         -0.3183 -24.3013  13.8021 H              1 <1>                0.0000
     27 H27         -0.5396 -23.3713  15.3036 H              1 <1>                0.0000
     28 H28          0.8567 -21.4170  11.7629 H              1 <1>                0.0000
     29 H29          0.4971 -23.1600  11.7345 H              1 <1>                0.0000
     30 H30         -0.8290 -21.9797  11.8630 H              1 <1>                0.0000
     31 H31          1.8266 -22.5814  15.1631 H              1 <1>                0.0000
     32 H32          2.0479 -23.5114  13.6617 H              1 <1>                0.0000
     33 H33          2.4074 -21.7683  13.6901 H              1 <1>                0.0000
     34 H34         -0.7766 -16.0729  14.4317 H              1 <1>                0.0000
     35 H35          0.3588 -15.4545  11.6125 H              1 <1>                0.0000
     36 H36          1.3528 -16.5404  10.8070 H              1 <1>                0.0000
@<TRIPOS>BOND
    1    1    2 1     
    2    1   16 1     
    3    1   17 1     
    4    1   18 1     
    5    2    3 1     
    6    2    9 am    
    7    3    4 1     
    8    3   19 1     
    9    3   20 1     
   10    4    5 1     
   11    4    6 1     
   12    4    8 1     
   13    5   34 1     
   14    6    7 1     
   15    6   21 1     
   16    6   22 1     
   17    7    8 1     
   18    7   35 1     
   19    7   36 1     
   20    8   23 1     
   21    8   24 1     
   22    9   10 2     
   23    9   11 1     
   24   11   12 1     
   25   12   13 1     
   26   12   14 1     
   27   12   15 1     
   28   13   25 1     
   29   13   26 1     
   30   13   27 1     
   31   14   28 1     
   32   14   29 1     
   33   14   30 1     
   34   15   31 1     
   35   15   32 1     
   36   15   33 1     
@<TRIPOS>SUBSTRUCTURE
      1 ****           1
@<TRIPOS>SET
DONOR_HYDROGENS      STATIC     ATOMS    <user>   **** ""
3 34 35 36
ATOM$RED        STATIC     ATOMS    COLORGROUP SYSTEM
3 34 35 36
@<TRIPOS>COMMENT
> <Gold.Version>
2022.2.0

> <Gold.Id.Protein>
3pbl|protein|mol2

> <Gold.Protein.RotatedTorsions>
[ 1303 1298 1297 1294 ] final  150.80 input  179.99 | X-H torsion
[ 2461 2456 2455 2452 ] final   83.86 input   30.03 | X-H torsion
[ 2515 2510 2509 2506 ] final  131.15 input  -89.99 | X-H torsion
[ 3721 3712 3711 3710 ] final   25.77 input -179.91 | X-H torsion
[ 3841 3832 3831 3830 ] final  -10.99 input -179.91 | X-H torsion
[ 3767 3762 3761 3758 ] final  -92.25 input  -89.99 | X-H torsion
[ 2472 2467 2466 2463 ] final  105.49 input  -89.97 | X-H torsion

> <Gold.Protein.ActiveResidues>
 VAL82   VAL86   LEU89   PHE106  VAL107  ASP110  VAL111  MET112  CYS114  THR115 
 CYS181  SER182  ILE183  PHE188  VAL189  ILE190  SER192  SER193  SER196  TRP342 
 PHE345  PHE346  HIS349  VAL350  TYR365  THR369  GLY372  TYR373 

> <Gold.Protein.RotatedAtoms>
    4.9051   -9.3025    4.8817 H   0  0  0  0  0  0  0  0  0  0  0  0  # atno 1303 bound_to 1298
    2.1112   -8.2336    7.6494 H   0  0  0  0  0  0  0  0  0  0  0  0  # atno 2461 bound_to 2456
   -5.2888   -4.9952    7.9488 H   0  0  0  0  0  0  0  0  0  0  0  0  # atno 2472 bound_to 2467
    2.0682   -8.3451    6.0943 H   0  0  0  0  0  0  0  0  0  0  0  0  # atno 2515 bound_to 2510
   -2.4760  -18.0344   13.8641 H   0  0  0  0  0  0  0  0  0  0  0  0  # atno 3721 bound_to 3712
   -5.2003  -21.9169   11.2398 H   0  0  0  0  0  0  0  0  0  0  0  0  # atno 3767 bound_to 3762
    1.6536  -20.3582    9.4949 H   0  0  0  0  0  0  0  0  0  0  0  0  # atno 3841 bound_to 3832
    3.6405  -10.1849    4.3447 LP  0  0  0  0  0  0  0  0  0  0  0  0  # atno 4297 bound_to 1298
    3.8163   -8.6339    3.8650 LP  0  0  0  0  0  0  0  0  0  0  0  0  # atno 4298 bound_to 1298
    0.5543   -8.2865    7.1587 LP  0  0  0  0  0  0  0  0  0  0  0  0  # atno 4299 bound_to 2456
    1.0725   -9.2879    8.3400 LP  0  0  0  0  0  0  0  0  0  0  0  0  # atno 4300 bound_to 2456
    2.4636   -7.5263    4.7382 LP  0  0  0  0  0  0  0  0  0  0  0  0  # atno 4301 bound_to 2510
    2.7650   -9.1278    4.8423 LP  0  0  0  0  0  0  0  0  0  0  0  0  # atno 4302 bound_to 2510
   -3.2658  -16.9464   14.7419 LP  0  0  0  0  0  0  0  0  0  0  0  0  # atno 4306 bound_to 3712
   -3.4033  -16.9589   13.1148 LP  0  0  0  0  0  0  0  0  0  0  0  0  # atno 4307 bound_to 3712
    2.3110  -19.7001    8.1869 LP  0  0  0  0  0  0  0  0  0  0  0  0  # atno 4314 bound_to 3832
    3.0082  -20.9884    8.9086 LP  0  0  0  0  0  0  0  0  0  0  0  0  # atno 4315 bound_to 3832
   -3.9146  -22.9233   11.2675 LP  0  0  0  0  0  0  0  0  0  0  0  0  # atno 4318 bound_to 3762
   -5.0127  -23.0346   10.0640 LP  0  0  0  0  0  0  0  0  0  0  0  0  # atno 4319 bound_to 3762
   -3.6902   -4.9366    8.2766 LP  0  0  0  0  0  0  0  0  0  0  0  0  # atno 4320 bound_to 2467
   -4.7381   -5.4617    9.4136 LP  0  0  0  0  0  0  0  0  0  0  0  0  # atno 4321 bound_to 2467

> <Gold.Score>
     Score     S(PLP)   S(hbond)     S(cho)   S(metal)  DE(clash)   DE(tors)     intcor
     40.85     -33.72       3.00       0.00       0.00       0.00       1.24       0.60

> <Gold.PLP.Fitness>
40.8464

> <Gold.PLP.PLP>
-33.7231

> <Gold.PLP.part.hbond>
-2.0000

> <Gold.PLP.part.metal>
0.0000

> <Gold.PLP.part.buried>
-5.0754

> <Gold.PLP.part.nonpolar>
-27.5447

> <Gold.PLP.part.repulsive>
0.0301

> <Gold.PLP.ligand.clash>
0.0000

> <Gold.PLP.ligand.torsion>
1.2379

> <Gold.PLP.Chemscore.Hbond>
3.0000

> <Gold.PLP.Chemscore.CHOScore>
0.0000

> <Gold.PLP.Chemscore.Metal>
0.0000

> <Gold.Chemscore.Hbonds>
donor molecule, donor type, donor heavy atom, donor atom, acceptor molecule, acceptor atom, score
      L1  H     7    36       P1  1227  2.00
      P1  H  2305  2313       L1     5  1.00

> <Gold.PLP.Chemscore.Internal.Correction>
0.5992

