#       Name:                EN300-7127842_i001
#       Creating user name   fsindt
#       Creation time:       Wed Mar  1 12:36:42 2023


#       File generated by GOLD software.
#

@<TRIPOS>MOLECULE
EN300-7127842_i001|amine_1|mol2|10353|dock5
    36    36     1
SMALL
USER_CHARGES


@<TRIPOS>ATOM
      1 C1          -0.7376 -18.8923  15.7475 C.3            1 <1>                0.0000
      2 N2           0.4561 -19.3884  15.0581 N.am           1 <1>                0.0000
      3 C3           1.6472 -18.5416  14.9545 C.3            1 <1>                0.0000
      4 C4           1.3571 -17.3657  14.0199 C.3            1 <1>                0.0000
      5 O5           0.5966 -16.3306  14.6463 O.3            1 <1>                0.0000
      6 C6           2.5973 -16.8532  13.2656 C.3            1 <1>                0.0000
      7 N7           1.7146 -16.7548  12.0822 N.4            1 <1>                1.0000
      8 C8           0.8125 -17.7879  12.6434 C.3            1 <1>                0.0000
      9 C9           0.4586 -20.6238  14.5193 C.2            1 <1>                0.0000
     10 O10          1.4486 -21.0353  13.9476 O.2            1 <1>                0.0000
     11 O11         -0.6360 -21.4019  14.6146 O.3            1 <1>                0.0000
     12 C12         -0.6941 -22.5667  13.7496 C.3            1 <1>                0.0000
     13 C13          0.3854 -23.5670  14.1679 C.3            1 <1>                0.0000
     14 C14         -2.0711 -23.2227  13.8693 C.3            1 <1>                0.0000
     15 C15         -0.4577 -22.1377  12.3001 C.3            1 <1>                0.0000
     16 H16         -1.3848 -18.3838  15.0329 H              1 <1>                0.0000
     17 H17         -1.2749 -19.7300  16.1922 H              1 <1>                0.0000
     18 H18         -0.4412 -18.1941  16.5303 H              1 <1>                0.0000
     19 H19          1.9115 -18.1640  15.9422 H              1 <1>                0.0000
     20 H20          2.4755 -19.1271  14.5556 H              1 <1>                0.0000
     21 H21          2.9617 -15.8900  13.6229 H              1 <1>                0.0000
     22 H22          3.3875 -17.5968  13.1635 H              1 <1>                0.0000
     23 H23          1.0802 -18.8057  12.3595 H              1 <1>                0.0000
     24 H24         -0.2461 -17.5702  12.5020 H              1 <1>                0.0000
     25 H25          0.2170 -23.8726  15.2005 H              1 <1>                0.0000
     26 H26          0.3418 -24.4413  13.5185 H              1 <1>                0.0000
     27 H27          1.3665 -23.0997  14.0826 H              1 <1>                0.0000
     28 H28         -2.8402 -22.5101  13.5713 H              1 <1>                0.0000
     29 H29         -2.1147 -24.0970  13.2199 H              1 <1>                0.0000
     30 H30         -2.2395 -23.5282  14.9019 H              1 <1>                0.0000
     31 H31          0.5233 -21.6704  12.2148 H              1 <1>                0.0000
     32 H32         -0.5013 -23.0120  11.6507 H              1 <1>                0.0000
     33 H33         -1.2269 -21.4251  12.0021 H              1 <1>                0.0000
     34 H34         -0.2509 -16.1503  14.2168 H              1 <1>                0.0000
     35 H35          1.2714 -15.8524  11.9956 H              1 <1>                0.0000
     36 H36          2.1666 -17.0467  11.2286 H              1 <1>                0.0000
@<TRIPOS>BOND
    1    1    2 1     
    2    1   16 1     
    3    1   17 1     
    4    1   18 1     
    5    2    3 1     
    6    2    9 am    
    7    3    4 1     
    8    3   19 1     
    9    3   20 1     
   10    4    5 1     
   11    4    6 1     
   12    4    8 1     
   13    5   34 1     
   14    6    7 1     
   15    6   21 1     
   16    6   22 1     
   17    7    8 1     
   18    7   35 1     
   19    7   36 1     
   20    8   23 1     
   21    8   24 1     
   22    9   10 2     
   23    9   11 1     
   24   11   12 1     
   25   12   13 1     
   26   12   14 1     
   27   12   15 1     
   28   13   25 1     
   29   13   26 1     
   30   13   27 1     
   31   14   28 1     
   32   14   29 1     
   33   14   30 1     
   34   15   31 1     
   35   15   32 1     
   36   15   33 1     
@<TRIPOS>SUBSTRUCTURE
      1 ****           1
@<TRIPOS>SET
DONOR_HYDROGENS      STATIC     ATOMS    <user>   **** ""
3 34 35 36
ATOM$RED        STATIC     ATOMS    COLORGROUP SYSTEM
3 34 35 36
@<TRIPOS>COMMENT
> <Gold.Version>
2022.2.0

> <Gold.Id.Protein>
3pbl|protein|mol2

> <Gold.Protein.RotatedTorsions>
[ 1303 1298 1297 1294 ] final -176.06 input  179.99 | X-H torsion
[ 2461 2456 2455 2452 ] final  -36.09 input   30.03 | X-H torsion
[ 2515 2510 2509 2506 ] final   52.61 input  -89.99 | X-H torsion
[ 3721 3712 3711 3710 ] final   68.24 input -179.91 | X-H torsion
[ 3841 3832 3831 3830 ] final  -49.32 input -179.91 | X-H torsion
[ 3767 3762 3761 3758 ] final  166.48 input  -89.99 | X-H torsion
[ 2472 2467 2466 2463 ] final  -58.95 input  -89.97 | X-H torsion

> <Gold.Protein.ActiveResidues>
 VAL82   VAL86   LEU89   PHE106  VAL107  ASP110  VAL111  MET112  CYS114  THR115 
 CYS181  SER182  ILE183  PHE188  VAL189  ILE190  SER192  SER193  SER196  TRP342 
 PHE345  PHE346  HIS349  VAL350  TYR365  THR369  GLY372  TYR373 

> <Gold.Protein.RotatedAtoms>
    4.8330   -8.8246    4.6461 H   0  0  0  0  0  0  0  0  0  0  0  0  # atno 1303 bound_to 1298
    0.5546   -8.2859    7.1583 H   0  0  0  0  0  0  0  0  0  0  0  0  # atno 2461 bound_to 2456
   -3.7197   -5.1818    8.9456 H   0  0  0  0  0  0  0  0  0  0  0  0  # atno 2472 bound_to 2467
    2.1895   -7.4295    5.3389 H   0  0  0  0  0  0  0  0  0  0  0  0  # atno 2515 bound_to 2510
   -2.6376  -17.8415   13.2894 H   0  0  0  0  0  0  0  0  0  0  0  0  # atno 3721 bound_to 3712
   -3.9910  -22.6999   11.4635 H   0  0  0  0  0  0  0  0  0  0  0  0  # atno 3767 bound_to 3762
    1.5738  -19.9153    9.1478 H   0  0  0  0  0  0  0  0  0  0  0  0  # atno 3841 bound_to 3832
    4.0624  -10.2641    4.6686 LP  0  0  0  0  0  0  0  0  0  0  0  0  # atno 4297 bound_to 1298
    3.4665   -9.0328    3.7767 LP  0  0  0  0  0  0  0  0  0  0  0  0  # atno 4298 bound_to 1298
    1.0717   -9.2879    8.3397 LP  0  0  0  0  0  0  0  0  0  0  0  0  # atno 4299 bound_to 2456
    2.1112   -8.2342    7.6500 LP  0  0  0  0  0  0  0  0  0  0  0  0  # atno 4300 bound_to 2456
    2.8329   -8.6157    4.4198 LP  0  0  0  0  0  0  0  0  0  0  0  0  # atno 4301 bound_to 2510
    2.2745   -8.9543    5.9165 LP  0  0  0  0  0  0  0  0  0  0  0  0  # atno 4302 bound_to 2510
   -2.9179  -17.5381   14.8409 LP  0  0  0  0  0  0  0  0  0  0  0  0  # atno 4306 bound_to 3712
   -3.5646  -16.5899   13.6793 LP  0  0  0  0  0  0  0  0  0  0  0  0  # atno 4307 bound_to 3712
    2.8379  -20.0422    8.1669 LP  0  0  0  0  0  0  0  0  0  0  0  0  # atno 4314 bound_to 3832
    2.5734  -21.1579    9.3296 LP  0  0  0  0  0  0  0  0  0  0  0  0  # atno 4315 bound_to 3832
   -4.7579  -23.1995   10.1111 LP  0  0  0  0  0  0  0  0  0  0  0  0  # atno 4318 bound_to 3762
   -5.3782  -21.9757   10.9966 LP  0  0  0  0  0  0  0  0  0  0  0  0  # atno 4319 bound_to 3762
   -5.3368   -5.3905    9.0332 LP  0  0  0  0  0  0  0  0  0  0  0  0  # atno 4320 bound_to 2467
   -4.6602   -4.8213    7.6604 LP  0  0  0  0  0  0  0  0  0  0  0  0  # atno 4321 bound_to 2467

> <Gold.Score>
     Score     S(PLP)   S(hbond)     S(cho)   S(metal)  DE(clash)   DE(tors)     intcor
     41.93     -33.48       3.00       0.00       0.00       0.00       0.57       0.60

> <Gold.PLP.Fitness>
41.9333

> <Gold.PLP.PLP>
-33.4780

> <Gold.PLP.part.hbond>
-2.0000

> <Gold.PLP.part.metal>
0.0000

> <Gold.PLP.part.buried>
-5.0498

> <Gold.PLP.part.nonpolar>
-26.7913

> <Gold.PLP.part.repulsive>
0.0000

> <Gold.PLP.ligand.clash>
0.0000

> <Gold.PLP.ligand.torsion>
0.5727

> <Gold.PLP.Chemscore.Hbond>
3.0000

> <Gold.PLP.Chemscore.CHOScore>
0.0000

> <Gold.PLP.Chemscore.Metal>
0.0000

> <Gold.Chemscore.Hbonds>
donor molecule, donor type, donor heavy atom, donor atom, acceptor molecule, acceptor atom, score
      L1  H     7    36       P1  1227  2.00
      P1  H  2305  2313       L1     5  1.00

> <Gold.PLP.Chemscore.Internal.Correction>
0.6008

