#       Name:                plp ligand
#       Creating user name   fsindt
#       Creation time:       Wed Mar  1 12:36:38 2023


#       File generated by GOLD software.
#

@<TRIPOS>MOLECULE
plp ligand
    36    36     1
SMALL
USER_CHARGES


@<TRIPOS>ATOM
      1 C1           0.4140   2.2351   0.0972 NONPOLAR       1 <1>                0.0000
      2 N2           0.4022   0.9024  -0.5111 NONPOLAR       1 <1>                0.0000
      3 C3           1.6036   0.3892  -1.1742 NONPOLAR       1 <1>                0.0000
      4 C4           2.4653  -0.3626  -0.1579 NONPOLAR       1 <1>                0.0000
      5 O5           1.7546  -1.4063   0.5112 DONACC         1 <1>                0.0000
      6 C6           3.8342  -0.8002  -0.7096 NONPOLAR       1 <1>                0.0000
      7 N7           4.3861  -0.3706   0.5943 DONOR          1 <1>                1.0000
      8 C8           3.2500   0.5601   0.7920 NONPOLAR       1 <1>                0.0000
      9 C9          -0.7138   0.1484  -0.4607 NONPOLAR       1 <1>                0.0000
     10 O10         -0.7236  -0.9569  -0.9652 ACCEPTOR       1 <1>                0.0000
     11 O11         -1.8178   0.6201   0.1487 ACCEPTOR       1 <1>                0.0000
     12 C12         -2.9829  -0.2463   0.1649 NONPOLAR       1 <1>                0.0000
     13 C13         -2.6391  -1.5499   0.8884 NONPOLAR       1 <1>                0.0000
     14 C14         -4.1300   0.4550   0.8952 NONPOLAR       1 <1>                0.0000
     15 C15         -3.4074  -0.5571  -1.2718 NONPOLAR       1 <1>                0.0000
     16 H16          0.1009   2.9739  -0.6405                1 <1>                0.0000
     17 H17         -0.2719   2.2540   0.9441                1 <1>                0.0000
     18 H18          1.4218   2.4688   0.4405                1 <1>                0.0000
     19 H19          1.3138  -0.2888  -1.9770                1 <1>                0.0000
     20 H20          2.1730   1.2210  -1.5888                1 <1>                0.0000
     21 H21          3.9133  -1.8726  -0.8881                1 <1>                0.0000
     22 H22          4.1801  -0.2011  -1.5518                1 <1>                0.0000
     23 H23          3.4245   1.5578   0.3890                1 <1>                0.0000
     24 H24          2.8656   0.5733   1.8118                1 <1>                0.0000
     25 H25         -2.3367  -1.3285   1.9119                1 <1>                0.0000
     26 H26         -3.5137  -2.2003   0.9005                1 <1>                0.0000
     27 H27         -1.8219  -2.0496   0.3681                1 <1>                0.0000
     28 H28         -4.3750   1.3837   0.3798                1 <1>                0.0000
     29 H29         -5.0046  -0.1954   0.9073                1 <1>                0.0000
     30 H30         -3.8276   0.6764   1.9187                1 <1>                0.0000
     31 H31         -2.5903  -1.0568  -1.7921                1 <1>                0.0000
     32 H32         -4.2820  -1.2075  -1.2597                1 <1>                0.0000
     33 H33         -3.6523   0.3716  -1.7872                1 <1>                0.0000
     34 H34          0.9070  -1.1283   0.8846                1 <1>                0.0000
     35 H35          4.4077  -1.1136   1.2767                1 <1>                0.0000
     36 H36          5.2736   0.1020   0.5096                1 <1>                0.0000
@<TRIPOS>BOND
    1    1    2 1     
    2    1   16 1     
    3    1   17 1     
    4    1   18 1     
    5    2    3 1     
    6    2    9 am    
    7    3    4 1     
    8    3   19 1     
    9    3   20 1     
   10    4    5 1     
   11    4    6 1     
   12    4    8 1     
   13    5   34 1     
   14    6    7 1     
   15    6   21 1     
   16    6   22 1     
   17    7    8 1     
   18    7   35 1     
   19    7   36 1     
   20    8   23 1     
   21    8   24 1     
   22    9   10 2     
   23    9   11 1     
   24   11   12 1     
   25   12   13 1     
   26   12   14 1     
   27   12   15 1     
   28   13   25 1     
   29   13   26 1     
   30   13   27 1     
   31   14   28 1     
   32   14   29 1     
   33   14   30 1     
   34   15   31 1     
   35   15   32 1     
   36   15   33 1     
@<TRIPOS>SUBSTRUCTURE
      1 ****           1
@<TRIPOS>SET
DONOR_HYDROGENS      STATIC     ATOMS    <user>   **** ""
3 34 35 36
ATOM$RED        STATIC     ATOMS    COLORGROUP SYSTEM
3 34 35 36
