#       Name:                EN300-7549830_i001
#       Creating user name   aseyller
#       Creation time:       Fri Apr 21 16:50:55 2023


#       File generated by GOLD software.
#

@<TRIPOS>MOLECULE
EN300-7549830_i001|aminophenols|mol2|145|dock6
    19    19     1
SMALL
USER_CHARGES


@<TRIPOS>ATOM
      1 C1          27.6166  37.7367  37.7076 C.3            1 <1>                0.0000
      2 C2          27.5625  37.0003  39.0214 C.ar           1 <1>                0.0000
      3 C3          28.7317  36.5325  39.6033 C.ar           1 <1>                0.0000
      4 O4          29.9267  36.7392  38.9880 O.3            1 <1>                0.0000
      5 C5          28.6832  35.8550  40.8120 C.ar           1 <1>                0.0000
      6 C6          27.4698  35.6436  41.4403 C.ar           1 <1>                0.0000
      7 C7          26.2987  36.1088  40.8624 C.ar           1 <1>                0.0000
      8 N8          25.0682  35.8945  41.4996 N.pl3          1 <1>                0.0000
      9 C9          26.3465  36.7953  39.6508 C.ar           1 <1>                0.0000
     10 O10         25.1993  37.2532  39.0818 O.3            1 <1>                0.0000
     11 H11         27.5240  37.0243  36.8878 H              1 <1>                0.0000
     12 H12         26.7977  38.4544  37.6595 H              1 <1>                0.0000
     13 H13         28.5671  38.2637  37.6254 H              1 <1>                0.0000
     14 H14         29.5945  35.4913  41.2631 H              1 <1>                0.0000
     15 H15         27.4342  35.1155  42.3819 H              1 <1>                0.0000
     16 H16         30.4794  37.4071  39.4164 H              1 <1>                0.0000
     17 H17         25.0359  35.4205  42.3452 H              1 <1>                0.0000
     18 H18         24.2491  36.2203  41.0947 H              1 <1>                0.0000
     19 H19         24.3935  36.9503  39.5225 H              1 <1>                0.0000
@<TRIPOS>BOND
    1    1    2 1     
    2    1   11 1     
    3    1   12 1     
    4    1   13 1     
    5    2    3 ar    
    6    2    9 ar    
    7    3    4 1     
    8    3    5 ar    
    9    4   16 1     
   10    5    6 ar    
   11    5   14 1     
   12    6    7 ar    
   13    6   15 1     
   14    7    8 1     
   15    7    9 ar    
   16    8   17 1     
   17    8   18 1     
   18    9   10 1     
   19   10   19 1     
@<TRIPOS>SUBSTRUCTURE
      1 ****           1
@<TRIPOS>SET
DONOR_HYDROGENS      STATIC     ATOMS    <user>   **** ""
4 16 17 18 19
ATOM$RED        STATIC     ATOMS    COLORGROUP SYSTEM
4 16 17 18 19
@<TRIPOS>COMMENT
> <Gold.Version>
2022.2.0

> <Gold.Id.Protein>
1qkm|1qkm_protein|mol2

> <Gold.Protein.RotatedTorsions>
[  496  491  490  487 ] final   31.58 input  -89.99 | X-H torsion

> <Gold.Protein.ActiveResidues>
 MET295  LEU298  THR299  LEU301  ALA302  GLU305  TRP335  MET336  LEU339  MET340 
 GLY342  LEU343  ARG346  PHE356  ILE373  ILE376  PHE377  LEU380  LYS471  GLY472 
 MET473  HIS475  LEU476  LEU477  ASN478  MET479  VAL484  VAL487 

> <Gold.Protein.RotatedAtoms>
   36.3546   33.7307   42.3821 H   0  0  0  0  0  0  0  0  0  0  0  0  # atno 496  bound_to 491 

> <Gold.Score>
     Score     S(PLP)   S(hbond)     S(cho)   S(metal)  DE(clash)   DE(tors)     intcor
     38.39     -31.80       2.20       0.00       0.00       0.00       0.00       0.00

> <Gold.PLP.Fitness>
38.3902

> <Gold.PLP.PLP>
-31.8009

> <Gold.PLP.part.hbond>
-2.8326

> <Gold.PLP.part.metal>
0.0000

> <Gold.PLP.part.buried>
-1.1978

> <Gold.PLP.part.nonpolar>
-29.1337

> <Gold.PLP.part.repulsive>
0.1356

> <Gold.PLP.ligand.clash>
0.0000

> <Gold.PLP.ligand.torsion>
0.0000

> <Gold.PLP.Chemscore.Hbond>
2.1964

> <Gold.PLP.Chemscore.CHOScore>
0.0000

> <Gold.PLP.Chemscore.Metal>
0.0000

> <Gold.Chemscore.Hbonds>
donor molecule, donor type, donor heavy atom, donor atom, acceptor molecule, acceptor atom, score
      L1  H     8    17       P1   582  0.96
      L1  H     8    18       P1  1131  0.63
      L1  H    10    19       P1  1131  0.61

> <Gold.PLP.Chemscore.Internal.Correction>
0.0000

