#       Name:                EN300-7549830_i001
#       Creating user name   aseyller
#       Creation time:       Fri Apr 21 16:50:53 2023


#       File generated by GOLD software.
#

@<TRIPOS>MOLECULE
EN300-7549830_i001|aminophenols|mol2|145|dock3
    19    19     1
SMALL
USER_CHARGES


@<TRIPOS>ATOM
      1 C1          25.5024  37.4938  38.8266 C.3            1 <1>                0.0000
      2 C2          26.4731  36.9930  39.8649 C.ar           1 <1>                0.0000
      3 C3          26.0375  36.7410  41.1577 C.ar           1 <1>                0.0000
      4 O4          24.7342  36.9456  41.4874 O.3            1 <1>                0.0000
      5 C5          26.9296  36.2801  42.1139 C.ar           1 <1>                0.0000
      6 C6          28.2553  36.0707  41.7816 C.ar           1 <1>                0.0000
      7 C7          28.6953  36.3215  40.4911 C.ar           1 <1>                0.0000
      8 N8          30.0398  36.1091  40.1542 N.pl3          1 <1>                0.0000
      9 C9          27.7987  36.7788  39.5276 C.ar           1 <1>                0.0000
     10 O10         28.2275  37.0253  38.2607 O.3            1 <1>                0.0000
     11 H11         25.4875  38.5837  38.8390 H              1 <1>                0.0000
     12 H12         25.8129  37.1459  37.8414 H              1 <1>                0.0000
     13 H13         24.5051  37.1142  39.0485 H              1 <1>                0.0000
     14 H14         26.5885  36.0850  43.1198 H              1 <1>                0.0000
     15 H15         28.9486  35.7116  42.5280 H              1 <1>                0.0000
     16 H16         24.1075  36.6660  40.8060 H              1 <1>                0.0000
     17 H17         30.6626  35.7865  40.8242 H              1 <1>                0.0000
     18 H18         30.3471  36.2847  39.2510 H              1 <1>                0.0000
     19 H19         27.7021  37.6861  37.7892 H              1 <1>                0.0000
@<TRIPOS>BOND
    1    1    2 1     
    2    1   11 1     
    3    1   12 1     
    4    1   13 1     
    5    2    3 ar    
    6    2    9 ar    
    7    3    4 1     
    8    3    5 ar    
    9    4   16 1     
   10    5    6 ar    
   11    5   14 1     
   12    6    7 ar    
   13    6   15 1     
   14    7    8 1     
   15    7    9 ar    
   16    8   17 1     
   17    8   18 1     
   18    9   10 1     
   19   10   19 1     
@<TRIPOS>SUBSTRUCTURE
      1 ****           1
@<TRIPOS>SET
DONOR_HYDROGENS      STATIC     ATOMS    <user>   **** ""
4 16 17 18 19
ATOM$RED        STATIC     ATOMS    COLORGROUP SYSTEM
4 16 17 18 19
@<TRIPOS>COMMENT
> <Gold.Version>
2022.2.0

> <Gold.Id.Protein>
1qkm|1qkm_protein|mol2

> <Gold.Protein.RotatedTorsions>
[  496  491  490  487 ] final  147.59 input  -89.99 | X-H torsion

> <Gold.Protein.ActiveResidues>
 MET295  LEU298  THR299  LEU301  ALA302  GLU305  TRP335  MET336  LEU339  MET340 
 GLY342  LEU343  ARG346  PHE356  ILE373  ILE376  PHE377  LEU380  LYS471  GLY472 
 MET473  HIS475  LEU476  LEU477  ASN478  MET479  VAL484  VAL487 

> <Gold.Protein.RotatedAtoms>
   37.2523   33.0830   41.2273 H   0  0  0  0  0  0  0  0  0  0  0  0  # atno 496  bound_to 491 

> <Gold.Score>
     Score     S(PLP)   S(hbond)     S(cho)   S(metal)  DE(clash)   DE(tors)     intcor
     41.59     -34.01       2.53       0.00       0.00       0.00       0.00       0.00

> <Gold.PLP.Fitness>
41.5918

> <Gold.PLP.PLP>
-34.0078

> <Gold.PLP.part.hbond>
-3.0000

> <Gold.PLP.part.metal>
0.0000

> <Gold.PLP.part.buried>
-0.5907

> <Gold.PLP.part.nonpolar>
-31.5458

> <Gold.PLP.part.repulsive>
0.0573

> <Gold.PLP.ligand.clash>
0.0000

> <Gold.PLP.ligand.torsion>
0.0000

> <Gold.PLP.Chemscore.Hbond>
2.5280

> <Gold.PLP.Chemscore.CHOScore>
0.0000

> <Gold.PLP.Chemscore.Metal>
0.0000

> <Gold.Chemscore.Hbonds>
donor molecule, donor type, donor heavy atom, donor atom, acceptor molecule, acceptor atom, score
      L1  H     4    16       P1  1131  1.00
      L1  H     8    17       P1   470  1.00
      P1  H  1258  1270       L1     4  0.53

> <Gold.PLP.Chemscore.Internal.Correction>
0.0000

