#       Name:                EN300-7549830_i001
#       Creating user name   aseyller
#       Creation time:       Fri Apr 21 16:51:01 2023


#       File generated by GOLD software.
#

@<TRIPOS>MOLECULE
EN300-7549830_i001|aminophenols|mol2|145|dock18
    19    19     1
SMALL
USER_CHARGES


@<TRIPOS>ATOM
      1 C1          27.5874  38.1147  37.3322 C.3            1 <1>                0.0000
      2 C2          27.9403  37.3042  38.5528 C.ar           1 <1>                0.0000
      3 C3          29.2634  36.9747  38.8084 C.ar           1 <1>                0.0000
      4 O4          30.2419  37.3840  37.9573 O.3            1 <1>                0.0000
      5 C5          29.5892  36.2291  39.9310 C.ar           1 <1>                0.0000
      6 C6          28.5966  35.8119  40.7985 C.ar           1 <1>                0.0000
      7 C7          27.2729  36.1383  40.5470 C.ar           1 <1>                0.0000
      8 N8          26.2663  35.7152  41.4267 N.pl3          1 <1>                0.0000
      9 C9          26.9446  36.8928  39.4225 C.ar           1 <1>                0.0000
     10 O10         25.6469  37.2147  39.1735 O.3            1 <1>                0.0000
     11 H11         27.3918  37.4444  36.4952 H              1 <1>                0.0000
     12 H12         26.6978  38.7103  37.5365 H              1 <1>                0.0000
     13 H13         28.4176  38.7753  37.0824 H              1 <1>                0.0000
     14 H14         30.6198  35.9735  40.1279 H              1 <1>                0.0000
     15 H15         28.8526  35.2311  41.6724 H              1 <1>                0.0000
     16 H16         31.1379  37.2600  38.2994 H              1 <1>                0.0000
     17 H17         26.4959  35.1938  42.2117 H              1 <1>                0.0000
     18 H18         25.3403  35.9439  41.2502 H              1 <1>                0.0000
     19 H19         25.4333  37.2880  38.2333 H              1 <1>                0.0000
@<TRIPOS>BOND
    1    1    2 1     
    2    1   11 1     
    3    1   12 1     
    4    1   13 1     
    5    2    3 ar    
    6    2    9 ar    
    7    3    4 1     
    8    3    5 ar    
    9    4   16 1     
   10    5    6 ar    
   11    5   14 1     
   12    6    7 ar    
   13    6   15 1     
   14    7    8 1     
   15    7    9 ar    
   16    8   17 1     
   17    8   18 1     
   18    9   10 1     
   19   10   19 1     
@<TRIPOS>SUBSTRUCTURE
      1 ****           1
@<TRIPOS>SET
DONOR_HYDROGENS      STATIC     ATOMS    <user>   **** ""
4 16 17 18 19
ATOM$RED        STATIC     ATOMS    COLORGROUP SYSTEM
4 16 17 18 19
@<TRIPOS>COMMENT
> <Gold.Version>
2022.2.0

> <Gold.Id.Protein>
1qkm|1qkm_protein|mol2

> <Gold.Protein.RotatedTorsions>
[  496  491  490  487 ] final -106.63 input  -89.99 | X-H torsion

> <Gold.Protein.ActiveResidues>
 MET295  LEU298  THR299  LEU301  ALA302  GLU305  TRP335  MET336  LEU339  MET340 
 GLY342  LEU343  ARG346  PHE356  ILE373  ILE376  PHE377  LEU380  LYS471  GLY472 
 MET473  HIS475  LEU476  LEU477  ASN478  MET479  VAL484  VAL487 

> <Gold.Protein.RotatedAtoms>
   36.9101   34.5116   40.9031 H   0  0  0  0  0  0  0  0  0  0  0  0  # atno 496  bound_to 491 

> <Gold.Score>
     Score     S(PLP)   S(hbond)     S(cho)   S(metal)  DE(clash)   DE(tors)     intcor
     33.76     -30.76       1.00       0.00       0.00       0.00       0.00       0.00

> <Gold.PLP.Fitness>
33.7583

> <Gold.PLP.PLP>
-30.7583

> <Gold.PLP.part.hbond>
-1.0000

> <Gold.PLP.part.metal>
0.0000

> <Gold.PLP.part.buried>
-4.2635

> <Gold.PLP.part.nonpolar>
-26.1118

> <Gold.PLP.part.repulsive>
0.0414

> <Gold.PLP.ligand.clash>
0.0000

> <Gold.PLP.ligand.torsion>
0.0000

> <Gold.PLP.Chemscore.Hbond>
1.0000

> <Gold.PLP.Chemscore.CHOScore>
0.0000

> <Gold.PLP.Chemscore.Metal>
0.0000

> <Gold.Chemscore.Hbonds>
donor molecule, donor type, donor heavy atom, donor atom, acceptor molecule, acceptor atom, score
      L1  H     8    17       P1   582  1.00

> <Gold.PLP.Chemscore.Internal.Correction>
0.0000

