#       Name:                EN300-7549830_i001
#       Creating user name   aseyller
#       Creation time:       Fri Apr 21 16:50:55 2023


#       File generated by GOLD software.
#

@<TRIPOS>MOLECULE
EN300-7549830_i001|aminophenols|mol2|145|dock5
    19    19     1
SMALL
USER_CHARGES


@<TRIPOS>ATOM
      1 C1          28.9679  35.9753  42.1017 C.3            1 <1>                0.0000
      2 C2          28.3356  36.2770  40.7673 C.ar           1 <1>                0.0000
      3 C3          29.0881  36.1828  39.6057 C.ar           1 <1>                0.0000
      4 O4          30.3964  35.8175  39.6716 O.3            1 <1>                0.0000
      5 C5          28.5076  36.4600  38.3775 C.ar           1 <1>                0.0000
      6 C6          27.1775  36.8313  38.3072 C.ar           1 <1>                0.0000
      7 C7          26.4216  36.9272  39.4654 C.ar           1 <1>                0.0000
      8 N8          25.0728  37.3037  39.3941 N.pl3          1 <1>                0.0000
      9 C9          27.0020  36.6429  40.6997 C.ar           1 <1>                0.0000
     10 O10         26.2627  36.7358  41.8375 O.3            1 <1>                0.0000
     11 H11         29.3906  36.8895  42.5183 H              1 <1>                0.0000
     12 H12         28.2119  35.5819  42.7812 H              1 <1>                0.0000
     13 H13         29.7583  35.2364  41.9704 H              1 <1>                0.0000
     14 H14         29.0953  36.3864  37.4745 H              1 <1>                0.0000
     15 H15         26.7272  37.0468  37.3494 H              1 <1>                0.0000
     16 H16         30.6677  35.4810  40.5367 H              1 <1>                0.0000
     17 H17         24.6680  37.4971  38.5341 H              1 <1>                0.0000
     18 H18         24.5443  37.3706  40.2048 H              1 <1>                0.0000
     19 H19         26.0622  35.8831  42.2470 H              1 <1>                0.0000
@<TRIPOS>BOND
    1    1    2 1     
    2    1   11 1     
    3    1   12 1     
    4    1   13 1     
    5    2    3 ar    
    6    2    9 ar    
    7    3    4 1     
    8    3    5 ar    
    9    4   16 1     
   10    5    6 ar    
   11    5   14 1     
   12    6    7 ar    
   13    6   15 1     
   14    7    8 1     
   15    7    9 ar    
   16    8   17 1     
   17    8   18 1     
   18    9   10 1     
   19   10   19 1     
@<TRIPOS>SUBSTRUCTURE
      1 ****           1
@<TRIPOS>SET
DONOR_HYDROGENS      STATIC     ATOMS    <user>   **** ""
4 16 17 18 19
ATOM$RED        STATIC     ATOMS    COLORGROUP SYSTEM
4 16 17 18 19
@<TRIPOS>COMMENT
> <Gold.Version>
2022.2.0

> <Gold.Id.Protein>
1qkm|1qkm_protein|mol2

> <Gold.Protein.RotatedTorsions>
[  496  491  490  487 ] final  -85.13 input  -89.99 | X-H torsion

> <Gold.Protein.ActiveResidues>
 MET295  LEU298  THR299  LEU301  ALA302  GLU305  TRP335  MET336  LEU339  MET340 
 GLY342  LEU343  ARG346  PHE356  ILE373  ILE376  PHE377  LEU380  LYS471  GLY472 
 MET473  HIS475  LEU476  LEU477  ASN478  MET479  VAL484  VAL487 

> <Gold.Protein.RotatedAtoms>
   36.7125   34.6823   41.1390 H   0  0  0  0  0  0  0  0  0  0  0  0  # atno 496  bound_to 491 

> <Gold.Score>
     Score     S(PLP)   S(hbond)     S(cho)   S(metal)  DE(clash)   DE(tors)     intcor
     37.82     -31.82       2.00       0.00       0.00       0.00       0.00       0.00

> <Gold.PLP.Fitness>
37.8195

> <Gold.PLP.PLP>
-31.8195

> <Gold.PLP.part.hbond>
-3.0000

> <Gold.PLP.part.metal>
0.0000

> <Gold.PLP.part.buried>
-0.7528

> <Gold.PLP.part.nonpolar>
-29.1455

> <Gold.PLP.part.repulsive>
0.1322

> <Gold.PLP.ligand.clash>
0.0000

> <Gold.PLP.ligand.torsion>
0.0000

> <Gold.PLP.Chemscore.Hbond>
2.0000

> <Gold.PLP.Chemscore.CHOScore>
0.0000

> <Gold.PLP.Chemscore.Metal>
0.0000

> <Gold.Chemscore.Hbonds>
donor molecule, donor type, donor heavy atom, donor atom, acceptor molecule, acceptor atom, score
      L1  H     4    16       P1   470  1.00
      L1  H    10    19       P1   582  1.00

> <Gold.PLP.Chemscore.Internal.Correction>
0.0000

