#       Name:                EN300-7549830_i001
#       Creating user name   aseyller
#       Creation time:       Fri Apr 21 16:50:56 2023


#       File generated by GOLD software.
#

@<TRIPOS>MOLECULE
EN300-7549830_i001|aminophenols|mol2|145|dock8
    19    19     1
SMALL
USER_CHARGES


@<TRIPOS>ATOM
      1 C1          29.0795  37.1853  37.4018 C.3            1 <1>                0.0000
      2 C2          28.3247  36.9701  38.6884 C.ar           1 <1>                0.0000
      3 C3          26.9805  37.3036  38.7685 C.ar           1 <1>                0.0000
      4 O4          26.3442  37.8244  37.6854 O.3            1 <1>                0.0000
      5 C5          26.2851  37.1061  39.9516 C.ar           1 <1>                0.0000
      6 C6          26.9292  36.5764  41.0545 C.ar           1 <1>                0.0000
      7 C7          28.2725  36.2419  40.9793 C.ar           1 <1>                0.0000
      8 N8          28.9257  35.7047  42.0978 N.pl3          1 <1>                0.0000
      9 C9          28.9711  36.4341  39.7892 C.ar           1 <1>                0.0000
     10 O10         30.2889  36.1065  39.7126 O.3            1 <1>                0.0000
     11 H11         29.5148  38.1846  37.3989 H              1 <1>                0.0000
     12 H12         29.8731  36.4429  37.3178 H              1 <1>                0.0000
     13 H13         28.3963  37.0840  36.5586 H              1 <1>                0.0000
     14 H14         25.2388  37.3668  40.0119 H              1 <1>                0.0000
     15 H15         26.3856  36.4233  41.9751 H              1 <1>                0.0000
     16 H16         26.4636  37.3111  36.8746 H              1 <1>                0.0000
     17 H17         28.4378  35.5669  42.9247 H              1 <1>                0.0000
     18 H18         29.8656  35.4708  42.0446 H              1 <1>                0.0000
     19 H19         30.6728  35.8213  40.5530 H              1 <1>                0.0000
@<TRIPOS>BOND
    1    1    2 1     
    2    1   11 1     
    3    1   12 1     
    4    1   13 1     
    5    2    3 ar    
    6    2    9 ar    
    7    3    4 1     
    8    3    5 ar    
    9    4   16 1     
   10    5    6 ar    
   11    5   14 1     
   12    6    7 ar    
   13    6   15 1     
   14    7    8 1     
   15    7    9 ar    
   16    8   17 1     
   17    8   18 1     
   18    9   10 1     
   19   10   19 1     
@<TRIPOS>SUBSTRUCTURE
      1 ****           1
@<TRIPOS>SET
DONOR_HYDROGENS      STATIC     ATOMS    <user>   **** ""
4 16 17 18 19
ATOM$RED        STATIC     ATOMS    COLORGROUP SYSTEM
4 16 17 18 19
@<TRIPOS>COMMENT
> <Gold.Version>
2022.2.0

> <Gold.Id.Protein>
1qkm|1qkm_protein|mol2

> <Gold.Protein.RotatedTorsions>
[  496  491  490  487 ] final  -40.08 input  -89.99 | X-H torsion

> <Gold.Protein.ActiveResidues>
 MET295  LEU298  THR299  LEU301  ALA302  GLU305  TRP335  MET336  LEU339  MET340 
 GLY342  LEU343  ARG346  PHE356  ILE373  ILE376  PHE377  LEU380  LYS471  GLY472 
 MET473  HIS475  LEU476  LEU477  ASN478  MET479  VAL484  VAL487 

> <Gold.Protein.RotatedAtoms>
   36.3637   34.6505   41.7711 H   0  0  0  0  0  0  0  0  0  0  0  0  # atno 496  bound_to 491 

> <Gold.Score>
     Score     S(PLP)   S(hbond)     S(cho)   S(metal)  DE(clash)   DE(tors)     intcor
     35.14     -29.14       2.00       0.00       0.00       0.00       0.00       0.00

> <Gold.PLP.Fitness>
35.1440

> <Gold.PLP.PLP>
-29.1440

> <Gold.PLP.part.hbond>
-2.0000

> <Gold.PLP.part.metal>
0.0000

> <Gold.PLP.part.buried>
-1.2364

> <Gold.PLP.part.nonpolar>
-26.7942

> <Gold.PLP.part.repulsive>
0.1026

> <Gold.PLP.ligand.clash>
0.0000

> <Gold.PLP.ligand.torsion>
0.0000

> <Gold.PLP.Chemscore.Hbond>
2.0000

> <Gold.PLP.Chemscore.CHOScore>
0.0000

> <Gold.PLP.Chemscore.Metal>
0.0000

> <Gold.Chemscore.Hbonds>
donor molecule, donor type, donor heavy atom, donor atom, acceptor molecule, acceptor atom, score
      L1  H     8    18       P1   470  1.00
      L1  H    10    19       P1   470  1.00

> <Gold.PLP.Chemscore.Internal.Correction>
0.0000

