#       Name:                EN300-7549830_i001
#       Creating user name   aseyller
#       Creation time:       Fri Apr 21 16:50:53 2023


#       File generated by GOLD software.
#

@<TRIPOS>MOLECULE
EN300-7549830_i001|aminophenols|mol2|145|dock2
    19    19     1
SMALL
USER_CHARGES


@<TRIPOS>ATOM
      1 C1          25.5014  37.4236  38.9661 C.3            1 <1>                0.0000
      2 C2          26.8722  37.0138  39.4396 C.ar           1 <1>                0.0000
      3 C3          27.9748  37.2022  38.6192 C.ar           1 <1>                0.0000
      4 O4          27.8183  37.7574  37.3877 O.3            1 <1>                0.0000
      5 C5          29.2365  36.8255  39.0537 C.ar           1 <1>                0.0000
      6 C6          29.3989  36.2611  40.3055 C.ar           1 <1>                0.0000
      7 C7          28.2999  36.0704  41.1287 C.ar           1 <1>                0.0000
      8 N8          28.4647  35.4980  42.3981 N.pl3          1 <1>                0.0000
      9 C9          27.0323  36.4541  40.6959 C.ar           1 <1>                0.0000
     10 O10         25.9525  36.2686  41.5016 O.3            1 <1>                0.0000
     11 H11         25.0308  36.5876  38.4488 H              1 <1>                0.0000
     12 H12         24.8918  37.7103  39.8230 H              1 <1>                0.0000
     13 H13         25.5904  38.2693  38.2843 H              1 <1>                0.0000
     14 H14         30.0935  36.9728  38.4133 H              1 <1>                0.0000
     15 H15         30.3826  35.9684  40.6420 H              1 <1>                0.0000
     16 H16         27.5420  37.1301  36.7057 H              1 <1>                0.0000
     17 H17         29.3480  35.2352  42.7008 H              1 <1>                0.0000
     18 H18         27.6953  35.3649  42.9738 H              1 <1>                0.0000
     19 H19         26.1016  35.6392  42.2205 H              1 <1>                0.0000
@<TRIPOS>BOND
    1    1    2 1     
    2    1   11 1     
    3    1   12 1     
    4    1   13 1     
    5    2    3 ar    
    6    2    9 ar    
    7    3    4 1     
    8    3    5 ar    
    9    4   16 1     
   10    5    6 ar    
   11    5   14 1     
   12    6    7 ar    
   13    6   15 1     
   14    7    8 1     
   15    7    9 ar    
   16    8   17 1     
   17    8   18 1     
   18    9   10 1     
   19   10   19 1     
@<TRIPOS>SUBSTRUCTURE
      1 ****           1
@<TRIPOS>SET
DONOR_HYDROGENS      STATIC     ATOMS    <user>   **** ""
4 16 17 18 19
ATOM$RED        STATIC     ATOMS    COLORGROUP SYSTEM
4 16 17 18 19
@<TRIPOS>COMMENT
> <Gold.Version>
2022.2.0

> <Gold.Id.Protein>
1qkm|1qkm_protein|mol2

> <Gold.Protein.RotatedTorsions>
[  496  491  490  487 ] final  -85.45 input  -89.99 | X-H torsion

> <Gold.Protein.ActiveResidues>
 MET295  LEU298  THR299  LEU301  ALA302  GLU305  TRP335  MET336  LEU339  MET340 
 GLY342  LEU343  ARG346  PHE356  ILE373  ILE376  PHE377  LEU380  LYS471  GLY472 
 MET473  HIS475  LEU476  LEU477  ASN478  MET479  VAL484  VAL487 

> <Gold.Protein.RotatedAtoms>
   36.7155   34.6806   41.1350 H   0  0  0  0  0  0  0  0  0  0  0  0  # atno 496  bound_to 491 

> <Gold.Score>
     Score     S(PLP)   S(hbond)     S(cho)   S(metal)  DE(clash)   DE(tors)     intcor
     37.84     -31.84       2.00       0.00       0.00       0.00       0.00       0.00

> <Gold.PLP.Fitness>
37.8432

> <Gold.PLP.PLP>
-31.8432

> <Gold.PLP.part.hbond>
-2.0000

> <Gold.PLP.part.metal>
0.0000

> <Gold.PLP.part.buried>
-1.7307

> <Gold.PLP.part.nonpolar>
-28.3126

> <Gold.PLP.part.repulsive>
0.3551

> <Gold.PLP.ligand.clash>
0.0000

> <Gold.PLP.ligand.torsion>
0.0000

> <Gold.PLP.Chemscore.Hbond>
2.0000

> <Gold.PLP.Chemscore.CHOScore>
0.0000

> <Gold.PLP.Chemscore.Metal>
0.0000

> <Gold.Chemscore.Hbonds>
donor molecule, donor type, donor heavy atom, donor atom, acceptor molecule, acceptor atom, score
      L1  H     8    18       P1   582  1.00
      L1  H    10    19       P1   582  1.00

> <Gold.PLP.Chemscore.Internal.Correction>
0.0000

