#       Name:                EN300-7549830_i001
#       Creating user name   aseyller
#       Creation time:       Fri Apr 21 16:50:59 2023


#       File generated by GOLD software.
#

@<TRIPOS>MOLECULE
EN300-7549830_i001|aminophenols|mol2|145|dock13
    19    19     1
SMALL
USER_CHARGES


@<TRIPOS>ATOM
      1 C1          32.9176  35.8982  36.8715 C.3            1 <1>                0.0000
      2 C2          32.2179  36.9496  36.0493 C.ar           1 <1>                0.0000
      3 C3          32.7187  37.3047  34.8052 C.ar           1 <1>                0.0000
      4 O4          33.8409  36.7030  34.3278 O.3            1 <1>                0.0000
      5 C5          32.0758  38.2719  34.0478 C.ar           1 <1>                0.0000
      6 C6          30.9343  38.8851  34.5303 C.ar           1 <1>                0.0000
      7 C7          30.4304  38.5339  35.7732 C.ar           1 <1>                0.0000
      8 N8          29.2728  39.1558  36.2625 N.pl3          1 <1>                0.0000
      9 C9          31.0719  37.5577  36.5327 C.ar           1 <1>                0.0000
     10 O10         30.5795  37.2110  37.7522 O.3            1 <1>                0.0000
     11 H11         33.6632  36.3726  37.5096 H              1 <1>                0.0000
     12 H12         32.1881  35.3765  37.4910 H              1 <1>                0.0000
     13 H13         33.4076  35.1851  36.2086 H              1 <1>                0.0000
     14 H14         32.4675  38.5470  33.0798 H              1 <1>                0.0000
     15 H15         30.4351  39.6383  33.9387 H              1 <1>                0.0000
     16 H16         34.4085  37.2868  33.8060 H              1 <1>                0.0000
     17 H17         28.8241  39.8321  35.7313 H              1 <1>                0.0000
     18 H18         28.9206  38.9096  37.1321 H              1 <1>                0.0000
     19 H19         29.8471  36.5805  37.7158 H              1 <1>                0.0000
@<TRIPOS>BOND
    1    1    2 1     
    2    1   11 1     
    3    1   12 1     
    4    1   13 1     
    5    2    3 ar    
    6    2    9 ar    
    7    3    4 1     
    8    3    5 ar    
    9    4   16 1     
   10    5    6 ar    
   11    5   14 1     
   12    6    7 ar    
   13    6   15 1     
   14    7    8 1     
   15    7    9 ar    
   16    8   17 1     
   17    8   18 1     
   18    9   10 1     
   19   10   19 1     
@<TRIPOS>SUBSTRUCTURE
      1 ****           1
@<TRIPOS>SET
DONOR_HYDROGENS      STATIC     ATOMS    <user>   **** ""
4 16 17 18 19
ATOM$RED        STATIC     ATOMS    COLORGROUP SYSTEM
4 16 17 18 19
@<TRIPOS>COMMENT
> <Gold.Version>
2022.2.0

> <Gold.Id.Protein>
1qkm|1qkm_protein|mol2

> <Gold.Protein.RotatedTorsions>
[  496  491  490  487 ] final  -98.42 input  -89.99 | X-H torsion

> <Gold.Protein.ActiveResidues>
 MET295  LEU298  THR299  LEU301  ALA302  GLU305  TRP335  MET336  LEU339  MET340 
 GLY342  LEU343  ARG346  PHE356  ILE373  ILE376  PHE377  LEU380  LYS471  GLY472 
 MET473  HIS475  LEU476  LEU477  ASN478  MET479  VAL484  VAL487 

> <Gold.Protein.RotatedAtoms>
   36.8352   34.5894   40.9841 H   0  0  0  0  0  0  0  0  0  0  0  0  # atno 496  bound_to 491 

> <Gold.Score>
     Score     S(PLP)   S(hbond)     S(cho)   S(metal)  DE(clash)   DE(tors)     intcor
     32.88     -29.88       1.00       0.00       0.00       0.00       0.00       0.00

> <Gold.PLP.Fitness>
32.8824

> <Gold.PLP.PLP>
-29.8824

> <Gold.PLP.part.hbond>
-1.5134

> <Gold.PLP.part.metal>
0.0000

> <Gold.PLP.part.buried>
-4.2701

> <Gold.PLP.part.nonpolar>
-24.4517

> <Gold.PLP.part.repulsive>
0.0000

> <Gold.PLP.ligand.clash>
0.0000

> <Gold.PLP.ligand.torsion>
0.0000

> <Gold.PLP.Chemscore.Hbond>
1.0000

> <Gold.PLP.Chemscore.CHOScore>
0.0000

> <Gold.PLP.Chemscore.Metal>
0.0000

> <Gold.Chemscore.Hbonds>
donor molecule, donor type, donor heavy atom, donor atom, acceptor molecule, acceptor atom, score
      L1  H     4    16       P1  3229  1.00

> <Gold.PLP.Chemscore.Internal.Correction>
0.0000

