#       Name:                EN300-7549830_i001
#       Creating user name   aseyller
#       Creation time:       Fri Apr 21 16:50:59 2023


#       File generated by GOLD software.
#

@<TRIPOS>MOLECULE
EN300-7549830_i001|aminophenols|mol2|145|dock15
    19    19     1
SMALL
USER_CHARGES


@<TRIPOS>ATOM
      1 C1          33.0415  35.7954  37.3521 C.3            1 <1>                0.0000
      2 C2          31.7413  36.4965  37.6505 C.ar           1 <1>                0.0000
      3 C3          31.3857  37.6321  36.9375 C.ar           1 <1>                0.0000
      4 O4          32.2107  38.1121  35.9689 O.3            1 <1>                0.0000
      5 C5          30.1897  38.2780  37.2110 C.ar           1 <1>                0.0000
      6 C6          29.3485  37.7921  38.1950 C.ar           1 <1>                0.0000
      7 C7          29.6997  36.6578  38.9104 C.ar           1 <1>                0.0000
      8 N8          28.8467  36.1651  39.9082 N.pl3          1 <1>                0.0000
      9 C9          30.8984  36.0042  38.6324 C.ar           1 <1>                0.0000
     10 O10         31.2454  34.8909  39.3324 O.3            1 <1>                0.0000
     11 H11         33.8310  36.2130  37.9770 H              1 <1>                0.0000
     12 H12         32.9368  34.7310  37.5619 H              1 <1>                0.0000
     13 H13         33.2971  35.9354  36.3018 H              1 <1>                0.0000
     14 H14         29.9149  39.1621  36.6551 H              1 <1>                0.0000
     15 H15         28.4172  38.2967  38.4065 H              1 <1>                0.0000
     16 H16         32.0870  39.0518  35.7769 H              1 <1>                0.0000
     17 H17         28.0102  36.6179  40.0983 H              1 <1>                0.0000
     18 H18         29.0930  35.3713  40.4085 H              1 <1>                0.0000
     19 H19         31.2659  35.0194  40.2907 H              1 <1>                0.0000
@<TRIPOS>BOND
    1    1    2 1     
    2    1   11 1     
    3    1   12 1     
    4    1   13 1     
    5    2    3 ar    
    6    2    9 ar    
    7    3    4 1     
    8    3    5 ar    
    9    4   16 1     
   10    5    6 ar    
   11    5   14 1     
   12    6    7 ar    
   13    6   15 1     
   14    7    8 1     
   15    7    9 ar    
   16    8   17 1     
   17    8   18 1     
   18    9   10 1     
   19   10   19 1     
@<TRIPOS>SUBSTRUCTURE
      1 ****           1
@<TRIPOS>SET
DONOR_HYDROGENS      STATIC     ATOMS    <user>   **** ""
4 16 17 18 19
ATOM$RED        STATIC     ATOMS    COLORGROUP SYSTEM
4 16 17 18 19
@<TRIPOS>COMMENT
> <Gold.Version>
2022.2.0

> <Gold.Id.Protein>
1qkm|1qkm_protein|mol2

> <Gold.Protein.RotatedTorsions>
[  496  491  490  487 ] final  -83.20 input  -89.99 | X-H torsion

> <Gold.Protein.ActiveResidues>
 MET295  LEU298  THR299  LEU301  ALA302  GLU305  TRP335  MET336  LEU339  MET340 
 GLY342  LEU343  ARG346  PHE356  ILE373  ILE376  PHE377  LEU380  LYS471  GLY472 
 MET473  HIS475  LEU476  LEU477  ASN478  MET479  VAL484  VAL487 

> <Gold.Protein.RotatedAtoms>
   36.6949   34.6921   41.1636 H   0  0  0  0  0  0  0  0  0  0  0  0  # atno 496  bound_to 491 

> <Gold.Score>
     Score     S(PLP)   S(hbond)     S(cho)   S(metal)  DE(clash)   DE(tors)     intcor
     30.86     -27.86       1.00       0.00       0.00       0.00       0.00       0.00

> <Gold.PLP.Fitness>
30.8622

> <Gold.PLP.PLP>
-27.8622

> <Gold.PLP.part.hbond>
-1.0000

> <Gold.PLP.part.metal>
0.0000

> <Gold.PLP.part.buried>
-2.4568

> <Gold.PLP.part.nonpolar>
-24.5355

> <Gold.PLP.part.repulsive>
0.0044

> <Gold.PLP.ligand.clash>
0.0000

> <Gold.PLP.ligand.torsion>
0.0000

> <Gold.PLP.Chemscore.Hbond>
1.0000

> <Gold.PLP.Chemscore.CHOScore>
0.0000

> <Gold.PLP.Chemscore.Metal>
0.0000

> <Gold.Chemscore.Hbonds>
donor molecule, donor type, donor heavy atom, donor atom, acceptor molecule, acceptor atom, score
      L1  H    10    19       P1   470  1.00

> <Gold.PLP.Chemscore.Internal.Correction>
0.0000

