#       Name:                EN300-7549830_i001
#       Creating user name   aseyller
#       Creation time:       Fri Apr 21 16:51:00 2023


#       File generated by GOLD software.
#

@<TRIPOS>MOLECULE
EN300-7549830_i001|aminophenols|mol2|145|dock16
    19    19     1
SMALL
USER_CHARGES


@<TRIPOS>ATOM
      1 C1          27.9959  35.4416  41.2101 C.3            1 <1>                0.0000
      2 C2          28.0186  36.2549  39.9416 C.ar           1 <1>                0.0000
      3 C3          26.8538  36.8472  39.4761 C.ar           1 <1>                0.0000
      4 O4          25.6915  36.6940  40.1653 O.3            1 <1>                0.0000
      5 C5          26.8734  37.5958  38.3092 C.ar           1 <1>                0.0000
      6 C6          28.0537  37.7537  37.6064 C.ar           1 <1>                0.0000
      7 C7          29.2202  37.1634  38.0675 C.ar           1 <1>                0.0000
      8 N8          30.4171  37.3236  37.3549 N.pl3          1 <1>                0.0000
      9 C9          29.2033  36.4160  39.2433 C.ar           1 <1>                0.0000
     10 O10         30.3463  35.8360  39.6981 O.3            1 <1>                0.0000
     11 H11         27.7789  34.4007  40.9704 H              1 <1>                0.0000
     12 H12         28.9671  35.5066  41.7007 H              1 <1>                0.0000
     13 H13         27.2255  35.8293  41.8765 H              1 <1>                0.0000
     14 H14         25.9654  38.0557  37.9484 H              1 <1>                0.0000
     15 H15         28.0668  38.3373  36.6977 H              1 <1>                0.0000
     16 H16         24.9200  37.0767  39.7254 H              1 <1>                0.0000
     17 H17         30.4293  37.8477  36.5388 H              1 <1>                0.0000
     18 H18         31.2331  36.9103  37.6780 H              1 <1>                0.0000
     19 H19         30.4272  35.8288  40.6618 H              1 <1>                0.0000
@<TRIPOS>BOND
    1    1    2 1     
    2    1   11 1     
    3    1   12 1     
    4    1   13 1     
    5    2    3 ar    
    6    2    9 ar    
    7    3    4 1     
    8    3    5 ar    
    9    4   16 1     
   10    5    6 ar    
   11    5   14 1     
   12    6    7 ar    
   13    6   15 1     
   14    7    8 1     
   15    7    9 ar    
   16    8   17 1     
   17    8   18 1     
   18    9   10 1     
   19   10   19 1     
@<TRIPOS>SUBSTRUCTURE
      1 ****           1
@<TRIPOS>SET
DONOR_HYDROGENS      STATIC     ATOMS    <user>   **** ""
4 16 17 18 19
ATOM$RED        STATIC     ATOMS    COLORGROUP SYSTEM
4 16 17 18 19
@<TRIPOS>COMMENT
> <Gold.Version>
2022.2.0

> <Gold.Id.Protein>
1qkm|1qkm_protein|mol2

> <Gold.Protein.RotatedTorsions>
[  496  491  490  487 ] final  147.04 input  -89.99 | X-H torsion

> <Gold.Protein.ActiveResidues>
 MET295  LEU298  THR299  LEU301  ALA302  GLU305  TRP335  MET336  LEU339  MET340 
 GLY342  LEU343  ARG346  PHE356  ILE373  ILE376  PHE377  LEU380  LYS471  GLY472 
 MET473  HIS475  LEU476  LEU477  ASN478  MET479  VAL484  VAL487 

> <Gold.Protein.RotatedAtoms>
   37.2498   33.0784   41.2347 H   0  0  0  0  0  0  0  0  0  0  0  0  # atno 496  bound_to 491 

> <Gold.Score>
     Score     S(PLP)   S(hbond)     S(cho)   S(metal)  DE(clash)   DE(tors)     intcor
     33.53     -31.74       0.60       0.00       0.00       0.00       0.00       0.00

> <Gold.PLP.Fitness>
33.5293

> <Gold.PLP.PLP>
-31.7353

> <Gold.PLP.part.hbond>
-1.1895

> <Gold.PLP.part.metal>
0.0000

> <Gold.PLP.part.buried>
-3.8492

> <Gold.PLP.part.nonpolar>
-27.4057

> <Gold.PLP.part.repulsive>
0.0000

> <Gold.PLP.ligand.clash>
0.0000

> <Gold.PLP.ligand.torsion>
0.0000

> <Gold.PLP.Chemscore.Hbond>
0.5980

> <Gold.PLP.Chemscore.CHOScore>
0.0000

> <Gold.PLP.Chemscore.Metal>
0.0000

> <Gold.Chemscore.Hbonds>
donor molecule, donor type, donor heavy atom, donor atom, acceptor molecule, acceptor atom, score
      L1  H    10    19       P1   470  0.60

> <Gold.PLP.Chemscore.Internal.Correction>
0.0000

