#       Name:                EN300-7549830_i001
#       Creating user name   aseyller
#       Creation time:       Fri Apr 21 16:50:58 2023


#       File generated by GOLD software.
#

@<TRIPOS>MOLECULE
EN300-7549830_i001|aminophenols|mol2|145|dock11
    19    19     1
SMALL
USER_CHARGES


@<TRIPOS>ATOM
      1 C1          25.4984  37.3226  39.1002 C.3            1 <1>                0.0000
      2 C2          26.8257  36.7879  39.5731 C.ar           1 <1>                0.0000
      3 C3          26.9049  36.0832  40.7654 C.ar           1 <1>                0.0000
      4 O4          25.7842  35.8747  41.5070 O.3            1 <1>                0.0000
      5 C5          28.1254  35.5907  41.2015 C.ar           1 <1>                0.0000
      6 C6          29.2666  35.8006  40.4495 C.ar           1 <1>                0.0000
      7 C7          29.1924  36.5046  39.2575 C.ar           1 <1>                0.0000
      8 N8          30.3497  36.7175  38.4949 N.pl3          1 <1>                0.0000
      9 C9          27.9656  36.9948  38.8149 C.ar           1 <1>                0.0000
     10 O10         27.8898  37.6854  37.6457 O.3            1 <1>                0.0000
     11 H11         25.3513  38.3286  39.4931 H              1 <1>                0.0000
     12 H12         25.4863  37.3527  38.0107 H              1 <1>                0.0000
     13 H13         24.6980  36.6734  39.4548 H              1 <1>                0.0000
     14 H14         28.1849  35.0427  42.1301 H              1 <1>                0.0000
     15 H15         30.2164  35.4161  40.7910 H              1 <1>                0.0000
     16 H16         25.9446  35.4108  42.3401 H              1 <1>                0.0000
     17 H17         31.2028  36.3721  38.8012 H              1 <1>                0.0000
     18 H18         30.2972  37.2101  37.6609 H              1 <1>                0.0000
     19 H19         27.1790  38.3406  37.6213 H              1 <1>                0.0000
@<TRIPOS>BOND
    1    1    2 1     
    2    1   11 1     
    3    1   12 1     
    4    1   13 1     
    5    2    3 ar    
    6    2    9 ar    
    7    3    4 1     
    8    3    5 ar    
    9    4   16 1     
   10    5    6 ar    
   11    5   14 1     
   12    6    7 ar    
   13    6   15 1     
   14    7    8 1     
   15    7    9 ar    
   16    8   17 1     
   17    8   18 1     
   18    9   10 1     
   19   10   19 1     
@<TRIPOS>SUBSTRUCTURE
      1 ****           1
@<TRIPOS>SET
DONOR_HYDROGENS      STATIC     ATOMS    <user>   **** ""
4 16 17 18 19
ATOM$RED        STATIC     ATOMS    COLORGROUP SYSTEM
4 16 17 18 19
@<TRIPOS>COMMENT
> <Gold.Version>
2022.2.0

> <Gold.Id.Protein>
1qkm|1qkm_protein|mol2

> <Gold.Protein.RotatedTorsions>
[  496  491  490  487 ] final  -69.46 input  -89.99 | X-H torsion

> <Gold.Protein.ActiveResidues>
 MET295  LEU298  THR299  LEU301  ALA302  GLU305  TRP335  MET336  LEU339  MET340 
 GLY342  LEU343  ARG346  PHE356  ILE373  ILE376  PHE377  LEU380  LYS471  GLY472 
 MET473  HIS475  LEU476  LEU477  ASN478  MET479  VAL484  VAL487 

> <Gold.Protein.RotatedAtoms>
   36.5737   34.7334   41.3493 H   0  0  0  0  0  0  0  0  0  0  0  0  # atno 496  bound_to 491 

> <Gold.Score>
     Score     S(PLP)   S(hbond)     S(cho)   S(metal)  DE(clash)   DE(tors)     intcor
     36.44     -33.44       1.00       0.00       0.00       0.00       0.00       0.00

> <Gold.PLP.Fitness>
36.4368

> <Gold.PLP.PLP>
-33.4368

> <Gold.PLP.part.hbond>
-1.0000

> <Gold.PLP.part.metal>
0.0000

> <Gold.PLP.part.buried>
-3.1616

> <Gold.PLP.part.nonpolar>
-29.7502

> <Gold.PLP.part.repulsive>
0.0000

> <Gold.PLP.ligand.clash>
0.0000

> <Gold.PLP.ligand.torsion>
0.0000

> <Gold.PLP.Chemscore.Hbond>
1.0000

> <Gold.PLP.Chemscore.CHOScore>
0.0000

> <Gold.PLP.Chemscore.Metal>
0.0000

> <Gold.Chemscore.Hbonds>
donor molecule, donor type, donor heavy atom, donor atom, acceptor molecule, acceptor atom, score
      L1  H     4    16       P1   582  1.00

> <Gold.PLP.Chemscore.Internal.Correction>
0.0000

