#       Name:                EN300-7549830_i001
#       Creating user name   aseyller
#       Creation time:       Fri Apr 21 16:50:54 2023


#       File generated by GOLD software.
#

@<TRIPOS>MOLECULE
EN300-7549830_i001|aminophenols|mol2|145|dock4
    19    19     1
SMALL
USER_CHARGES


@<TRIPOS>ATOM
      1 C1          26.3178  36.9743  42.2358 C.3            1 <1>                0.0000
      2 C2          27.0127  36.6896  40.9292 C.ar           1 <1>                0.0000
      3 C3          26.3463  36.8942  39.7298 C.ar           1 <1>                0.0000
      4 O4          25.0659  37.3525  39.7337 O.3            1 <1>                0.0000
      5 C5          26.9845  36.6327  38.5270 C.ar           1 <1>                0.0000
      6 C6          28.2864  36.1671  38.5197 C.ar           1 <1>                0.0000
      7 C7          28.9563  35.9606  39.7158 C.ar           1 <1>                0.0000
      8 N8          30.2766  35.4884  39.7084 N.pl3          1 <1>                0.0000
      9 C9          28.3183  36.2289  40.9250 C.ar           1 <1>                0.0000
     10 O10         28.9732  36.0276  42.0999 O.3            1 <1>                0.0000
     11 H11         25.8047  36.0755  42.5777 H              1 <1>                0.0000
     12 H12         27.0540  37.2778  42.9801 H              1 <1>                0.0000
     13 H13         25.5924  37.7754  42.0945 H              1 <1>                0.0000
     14 H14         26.4638  36.7924  37.5945 H              1 <1>                0.0000
     15 H15         28.7818  35.9640  37.5817 H              1 <1>                0.0000
     16 H16         24.4080  36.6796  39.9562 H              1 <1>                0.0000
     17 H17         30.7218  35.3061  38.8661 H              1 <1>                0.0000
     18 H18         30.7449  35.3442  40.5456 H              1 <1>                0.0000
     19 H19         29.8817  35.7133  41.9949 H              1 <1>                0.0000
@<TRIPOS>BOND
    1    1    2 1     
    2    1   11 1     
    3    1   12 1     
    4    1   13 1     
    5    2    3 ar    
    6    2    9 ar    
    7    3    4 1     
    8    3    5 ar    
    9    4   16 1     
   10    5    6 ar    
   11    5   14 1     
   12    6    7 ar    
   13    6   15 1     
   14    7    8 1     
   15    7    9 ar    
   16    8   17 1     
   17    8   18 1     
   18    9   10 1     
   19   10   19 1     
@<TRIPOS>SUBSTRUCTURE
      1 ****           1
@<TRIPOS>SET
DONOR_HYDROGENS      STATIC     ATOMS    <user>   **** ""
4 16 17 18 19
ATOM$RED        STATIC     ATOMS    COLORGROUP SYSTEM
4 16 17 18 19
@<TRIPOS>COMMENT
> <Gold.Version>
2022.2.0

> <Gold.Id.Protein>
1qkm|1qkm_protein|mol2

> <Gold.Protein.RotatedTorsions>
[  496  491  490  487 ] final  -83.58 input  -89.99 | X-H torsion

> <Gold.Protein.ActiveResidues>
 MET295  LEU298  THR299  LEU301  ALA302  GLU305  TRP335  MET336  LEU339  MET340 
 GLY342  LEU343  ARG346  PHE356  ILE373  ILE376  PHE377  LEU380  LYS471  GLY472 
 MET473  HIS475  LEU476  LEU477  ASN478  MET479  VAL484  VAL487 

> <Gold.Protein.RotatedAtoms>
   36.6984   34.6902   41.1587 H   0  0  0  0  0  0  0  0  0  0  0  0  # atno 496  bound_to 491 

> <Gold.Score>
     Score     S(PLP)   S(hbond)     S(cho)   S(metal)  DE(clash)   DE(tors)     intcor
     40.96     -31.99       2.99       0.00       0.00       0.00       0.00       0.00

> <Gold.PLP.Fitness>
40.9616

> <Gold.PLP.PLP>
-31.9878

> <Gold.PLP.part.hbond>
-3.0000

> <Gold.PLP.part.metal>
0.0000

> <Gold.PLP.part.buried>
-0.0144

> <Gold.PLP.part.nonpolar>
-29.0887

> <Gold.PLP.part.repulsive>
0.0647

> <Gold.PLP.ligand.clash>
0.0000

> <Gold.PLP.ligand.torsion>
0.0000

> <Gold.PLP.Chemscore.Hbond>
2.9913

> <Gold.PLP.Chemscore.CHOScore>
0.0000

> <Gold.PLP.Chemscore.Metal>
0.0000

> <Gold.Chemscore.Hbonds>
donor molecule, donor type, donor heavy atom, donor atom, acceptor molecule, acceptor atom, score
      L1  H     4    16       P1  1131  0.99
      L1  H     8    18       P1   470  1.00
      L1  H    10    19       P1   470  1.00

> <Gold.PLP.Chemscore.Internal.Correction>
0.0000

