#       Name:                EN300-7549830_i001
#       Creating user name   aseyller
#       Creation time:       Fri Apr 21 16:50:57 2023


#       File generated by GOLD software.
#

@<TRIPOS>MOLECULE
EN300-7549830_i001|aminophenols|mol2|145|dock10
    19    19     1
SMALL
USER_CHARGES


@<TRIPOS>ATOM
      1 C1          29.6040  36.6212  41.0044 C.3            1 <1>                0.0000
      2 C2          28.2644  36.7015  40.3185 C.ar           1 <1>                0.0000
      3 C3          28.1980  36.8609  38.9421 C.ar           1 <1>                0.0000
      4 O4          29.3423  36.9441  38.2119 O.3            1 <1>                0.0000
      5 C5          26.9663  36.9349  38.3099 C.ar           1 <1>                0.0000
      6 C6          25.8011  36.8503  39.0495 C.ar           1 <1>                0.0000
      7 C7          25.8624  36.6914  40.4253 C.ar           1 <1>                0.0000
      8 N8          24.6808  36.6055  41.1754 N.pl3          1 <1>                0.0000
      9 C9          27.0995  36.6106  41.0612 C.ar           1 <1>                0.0000
     10 O10         27.1626  36.4543  42.4108 O.3            1 <1>                0.0000
     11 H11         29.9276  37.6227  41.2879 H              1 <1>                0.0000
     12 H12         29.5186  36.0007  41.8965 H              1 <1>                0.0000
     13 H13         30.3343  36.1821  40.3248 H              1 <1>                0.0000
     14 H14         26.9168  37.0594  37.2383 H              1 <1>                0.0000
     15 H15         24.8425  36.9082  38.5551 H              1 <1>                0.0000
     16 H16         29.5807  37.8456  37.9557 H              1 <1>                0.0000
     17 H17         23.8198  36.6572  40.7317 H              1 <1>                0.0000
     18 H18         24.7243  36.4942  42.1380 H              1 <1>                0.0000
     19 H19         26.5253  35.8182  42.7633 H              1 <1>                0.0000
@<TRIPOS>BOND
    1    1    2 1     
    2    1   11 1     
    3    1   12 1     
    4    1   13 1     
    5    2    3 ar    
    6    2    9 ar    
    7    3    4 1     
    8    3    5 ar    
    9    4   16 1     
   10    5    6 ar    
   11    5   14 1     
   12    6    7 ar    
   13    6   15 1     
   14    7    8 1     
   15    7    9 ar    
   16    8   17 1     
   17    8   18 1     
   18    9   10 1     
   19   10   19 1     
@<TRIPOS>SUBSTRUCTURE
      1 ****           1
@<TRIPOS>SET
DONOR_HYDROGENS      STATIC     ATOMS    <user>   **** ""
4 16 17 18 19
ATOM$RED        STATIC     ATOMS    COLORGROUP SYSTEM
4 16 17 18 19
@<TRIPOS>COMMENT
> <Gold.Version>
2022.2.0

> <Gold.Id.Protein>
1qkm|1qkm_protein|mol2

> <Gold.Protein.RotatedTorsions>
[  496  491  490  487 ] final  -49.03 input  -89.99 | X-H torsion

> <Gold.Protein.ActiveResidues>
 MET295  LEU298  THR299  LEU301  ALA302  GLU305  TRP335  MET336  LEU339  MET340 
 GLY342  LEU343  ARG346  PHE356  ILE373  ILE376  PHE377  LEU380  LYS471  GLY472 
 MET473  HIS475  LEU476  LEU477  ASN478  MET479  VAL484  VAL487 

> <Gold.Protein.RotatedAtoms>
   36.4182   34.7000   41.6436 H   0  0  0  0  0  0  0  0  0  0  0  0  # atno 496  bound_to 491 

> <Gold.Score>
     Score     S(PLP)   S(hbond)     S(cho)   S(metal)  DE(clash)   DE(tors)     intcor
     37.62     -31.62       2.00       0.00       0.00       0.00       0.00       0.00

> <Gold.PLP.Fitness>
37.6172

> <Gold.PLP.PLP>
-31.6172

> <Gold.PLP.part.hbond>
-2.0000

> <Gold.PLP.part.metal>
0.0000

> <Gold.PLP.part.buried>
-0.6270

> <Gold.PLP.part.nonpolar>
-30.4242

> <Gold.PLP.part.repulsive>
1.0339

> <Gold.PLP.ligand.clash>
0.0000

> <Gold.PLP.ligand.torsion>
0.0000

> <Gold.PLP.Chemscore.Hbond>
2.0000

> <Gold.PLP.Chemscore.CHOScore>
0.0000

> <Gold.PLP.Chemscore.Metal>
0.0000

> <Gold.Chemscore.Hbonds>
donor molecule, donor type, donor heavy atom, donor atom, acceptor molecule, acceptor atom, score
      L1  H     8    17       P1  1131  1.00
      L1  H    10    19       P1   582  1.00

> <Gold.PLP.Chemscore.Internal.Correction>
0.0000

