#       Name:                EN300-7549830_i001
#       Creating user name   aseyller
#       Creation time:       Fri Apr 21 16:50:56 2023


#       File generated by GOLD software.
#

@<TRIPOS>MOLECULE
EN300-7549830_i001|aminophenols|mol2|145|dock7
    19    19     1
SMALL
USER_CHARGES


@<TRIPOS>ATOM
      1 C1          28.4889  35.8007  42.1272 C.3            1 <1>                0.0000
      2 C2          27.9078  36.2733  40.8195 C.ar           1 <1>                0.0000
      3 C3          26.5436  36.4990  40.7075 C.ar           1 <1>                0.0000
      4 O4          25.7311  36.2940  41.7786 O.3            1 <1>                0.0000
      5 C5          26.0078  36.9338  39.5050 C.ar           1 <1>                0.0000
      6 C6          26.8314  37.1435  38.4143 C.ar           1 <1>                0.0000
      7 C7          28.1953  36.9189  38.5212 C.ar           1 <1>                0.0000
      8 N8          29.0305  37.1316  37.4152 N.pl3          1 <1>                0.0000
      9 C9          28.7360  36.4879  39.7309 C.ar           1 <1>                0.0000
     10 O10         30.0736  36.2671  39.8387 O.3            1 <1>                0.0000
     11 H11         28.4915  34.7109  42.1508 H              1 <1>                0.0000
     12 H12         29.5103  36.1687  42.2249 H              1 <1>                0.0000
     13 H13         27.8854  36.1806  42.9514 H              1 <1>                0.0000
     14 H14         24.9455  37.1086  39.4199 H              1 <1>                0.0000
     15 H15         26.4120  37.4823  37.4784 H              1 <1>                0.0000
     16 H16         26.1466  35.8002  42.4987 H              1 <1>                0.0000
     17 H17         28.6542  37.4360  36.5746 H              1 <1>                0.0000
     18 H18         29.9847  36.9743  37.4906 H              1 <1>                0.0000
     19 H19         30.3337  35.8185  40.6550 H              1 <1>                0.0000
@<TRIPOS>BOND
    1    1    2 1     
    2    1   11 1     
    3    1   12 1     
    4    1   13 1     
    5    2    3 ar    
    6    2    9 ar    
    7    3    4 1     
    8    3    5 ar    
    9    4   16 1     
   10    5    6 ar    
   11    5   14 1     
   12    6    7 ar    
   13    6   15 1     
   14    7    8 1     
   15    7    9 ar    
   16    8   17 1     
   17    8   18 1     
   18    9   10 1     
   19   10   19 1     
@<TRIPOS>SUBSTRUCTURE
      1 ****           1
@<TRIPOS>SET
DONOR_HYDROGENS      STATIC     ATOMS    <user>   **** ""
4 16 17 18 19
ATOM$RED        STATIC     ATOMS    COLORGROUP SYSTEM
4 16 17 18 19
@<TRIPOS>COMMENT
> <Gold.Version>
2022.2.0

> <Gold.Id.Protein>
1qkm|1qkm_protein|mol2

> <Gold.Protein.RotatedTorsions>
[  496  491  490  487 ] final  122.76 input  -89.99 | X-H torsion

> <Gold.Protein.ActiveResidues>
 MET295  LEU298  THR299  LEU301  ALA302  GLU305  TRP335  MET336  LEU339  MET340 
 GLY342  LEU343  ARG346  PHE356  ILE373  ILE376  PHE377  LEU380  LYS471  GLY472 
 MET473  HIS475  LEU476  LEU477  ASN478  MET479  VAL484  VAL487 

> <Gold.Protein.RotatedAtoms>
   37.1015   32.9482   41.5788 H   0  0  0  0  0  0  0  0  0  0  0  0  # atno 496  bound_to 491 

> <Gold.Score>
     Score     S(PLP)   S(hbond)     S(cho)   S(metal)  DE(clash)   DE(tors)     intcor
     39.63     -34.68       1.65       0.00       0.00       0.00       0.00       0.00

> <Gold.PLP.Fitness>
39.6343

> <Gold.PLP.PLP>
-34.6843

> <Gold.PLP.part.hbond>
-1.9018

> <Gold.PLP.part.metal>
0.0000

> <Gold.PLP.part.buried>
-3.4931

> <Gold.PLP.part.nonpolar>
-29.7738

> <Gold.PLP.part.repulsive>
0.0000

> <Gold.PLP.ligand.clash>
0.0000

> <Gold.PLP.ligand.torsion>
0.0000

> <Gold.PLP.Chemscore.Hbond>
1.6500

> <Gold.PLP.Chemscore.CHOScore>
0.0000

> <Gold.PLP.Chemscore.Metal>
0.0000

> <Gold.Chemscore.Hbonds>
donor molecule, donor type, donor heavy atom, donor atom, acceptor molecule, acceptor atom, score
      L1  H     4    16       P1   582  1.00
      L1  H    10    19       P1   470  0.65

> <Gold.PLP.Chemscore.Internal.Correction>
0.0000

