#       Name:                EN300-7549830_i001
#       Creating user name   aseyller
#       Creation time:       Fri Apr 21 16:50:52 2023


#       File generated by GOLD software.
#

@<TRIPOS>MOLECULE
EN300-7549830_i001|aminophenols|mol2|145|dock1
    19    19     1
SMALL
USER_CHARGES


@<TRIPOS>ATOM
      1 C1          29.5317  35.7662  39.6802 C.3            1 <1>                0.0000
      2 C2          28.1140  36.2775  39.6773 C.ar           1 <1>                0.0000
      3 C3          27.6594  37.0566  38.6234 C.ar           1 <1>                0.0000
      4 O4          28.4934  37.3583  37.5926 O.3            1 <1>                0.0000
      5 C5          26.3553  37.5275  38.6196 C.ar           1 <1>                0.0000
      6 C6          25.5047  37.2221  39.6661 C.ar           1 <1>                0.0000
      7 C7          25.9546  36.4442  40.7217 C.ar           1 <1>                0.0000
      8 N8          25.0920  36.1345  41.7830 N.pl3          1 <1>                0.0000
      9 C9          27.2630  35.9651  40.7239 C.ar           1 <1>                0.0000
     10 O10         27.7069  35.2015  41.7580 O.3            1 <1>                0.0000
     11 H11         30.1780  36.4905  40.1760 H              1 <1>                0.0000
     12 H12         29.5742  34.8165  40.2133 H              1 <1>                0.0000
     13 H13         29.8679  35.6221  38.6535 H              1 <1>                0.0000
     14 H14         26.0035  38.1341  37.7984 H              1 <1>                0.0000
     15 H15         24.4892  37.5899  39.6612 H              1 <1>                0.0000
     16 H16         28.3374  36.8352  36.7943 H              1 <1>                0.0000
     17 H17         24.1799  36.4645  41.7788 H              1 <1>                0.0000
     18 H18         25.4074  35.5901  42.5213 H              1 <1>                0.0000
     19 H19         27.1492  35.2449  42.5468 H              1 <1>                0.0000
@<TRIPOS>BOND
    1    1    2 1     
    2    1   11 1     
    3    1   12 1     
    4    1   13 1     
    5    2    3 ar    
    6    2    9 ar    
    7    3    4 1     
    8    3    5 ar    
    9    4   16 1     
   10    5    6 ar    
   11    5   14 1     
   12    6    7 ar    
   13    6   15 1     
   14    7    8 1     
   15    7    9 ar    
   16    8   17 1     
   17    8   18 1     
   18    9   10 1     
   19   10   19 1     
@<TRIPOS>SUBSTRUCTURE
      1 ****           1
@<TRIPOS>SET
DONOR_HYDROGENS      STATIC     ATOMS    <user>   **** ""
4 16 17 18 19
ATOM$RED        STATIC     ATOMS    COLORGROUP SYSTEM
4 16 17 18 19
@<TRIPOS>COMMENT
> <Gold.Version>
2022.2.0

> <Gold.Id.Protein>
1qkm|1qkm_protein|mol2

> <Gold.Protein.RotatedTorsions>
[  496  491  490  487 ] final -123.80 input  -89.99 | X-H torsion

> <Gold.Protein.ActiveResidues>
 MET295  LEU298  THR299  LEU301  ALA302  GLU305  TRP335  MET336  LEU339  MET340 
 GLY342  LEU343  ARG346  PHE356  ILE373  ILE376  PHE377  LEU380  LYS471  GLY472 
 MET473  HIS475  LEU476  LEU477  ASN478  MET479  VAL484  VAL487 

> <Gold.Protein.RotatedAtoms>
   37.0570   34.3063   40.7784 H   0  0  0  0  0  0  0  0  0  0  0  0  # atno 496  bound_to 491 

> <Gold.Score>
     Score     S(PLP)   S(hbond)     S(cho)   S(metal)  DE(clash)   DE(tors)     intcor
     41.40     -35.40       2.00       0.00       0.00       0.00       0.00       0.00

> <Gold.PLP.Fitness>
41.3961

> <Gold.PLP.PLP>
-35.3961

> <Gold.PLP.part.hbond>
-2.2682

> <Gold.PLP.part.metal>
0.0000

> <Gold.PLP.part.buried>
-4.6372

> <Gold.PLP.part.nonpolar>
-29.5037

> <Gold.PLP.part.repulsive>
0.8366

> <Gold.PLP.ligand.clash>
0.0000

> <Gold.PLP.ligand.torsion>
0.0000

> <Gold.PLP.Chemscore.Hbond>
2.0000

> <Gold.PLP.Chemscore.CHOScore>
0.0000

> <Gold.PLP.Chemscore.Metal>
0.0000

> <Gold.Chemscore.Hbonds>
donor molecule, donor type, donor heavy atom, donor atom, acceptor molecule, acceptor atom, score
      L1  H     8    18       P1   582  1.00
      L1  H    10    19       P1   582  1.00

> <Gold.PLP.Chemscore.Internal.Correction>
0.0000

