#       Name:                EN300-7549830_i001
#       Creating user name   aseyller
#       Creation time:       Fri Apr 21 16:50:58 2023


#       File generated by GOLD software.
#

@<TRIPOS>MOLECULE
EN300-7549830_i001|aminophenols|mol2|145|dock12
    19    19     1
SMALL
USER_CHARGES


@<TRIPOS>ATOM
      1 C1          30.6837  37.9943  34.8610 C.3            1 <1>                0.0000
      2 C2          31.3747  37.0661  35.8264 C.ar           1 <1>                0.0000
      3 C3          32.5570  36.4392  35.4608 C.ar           1 <1>                0.0000
      4 O4          33.0924  36.6631  34.2309 O.3            1 <1>                0.0000
      5 C5          33.1937  35.5851  36.3482 C.ar           1 <1>                0.0000
      6 C6          32.6521  35.3558  37.5995 C.ar           1 <1>                0.0000
      7 C7          31.4706  35.9797  37.9693 C.ar           1 <1>                0.0000
      8 N8          30.9213  35.7471  39.2383 N.pl3          1 <1>                0.0000
      9 C9          30.8329  36.8430  37.0809 C.ar           1 <1>                0.0000
     10 O10         29.6739  37.4567  37.4411 O.3            1 <1>                0.0000
     11 H11         29.9809  37.4265  34.2512 H              1 <1>                0.0000
     12 H12         30.1450  38.7615  35.4171 H              1 <1>                0.0000
     13 H13         31.4254  38.4660  34.2165 H              1 <1>                0.0000
     14 H14         34.1138  35.0979  36.0614 H              1 <1>                0.0000
     15 H15         33.1497  34.6901  38.2893 H              1 <1>                0.0000
     16 H16         32.5477  36.3399  33.5001 H              1 <1>                0.0000
     17 H17         31.3680  35.1495  39.8581 H              1 <1>                0.0000
     18 H18         30.0946  36.1840  39.4965 H              1 <1>                0.0000
     19 H19         29.2193  37.0345  38.1829 H              1 <1>                0.0000
@<TRIPOS>BOND
    1    1    2 1     
    2    1   11 1     
    3    1   12 1     
    4    1   13 1     
    5    2    3 ar    
    6    2    9 ar    
    7    3    4 1     
    8    3    5 ar    
    9    4   16 1     
   10    5    6 ar    
   11    5   14 1     
   12    6    7 ar    
   13    6   15 1     
   14    7    8 1     
   15    7    9 ar    
   16    8   17 1     
   17    8   18 1     
   18    9   10 1     
   19   10   19 1     
@<TRIPOS>SUBSTRUCTURE
      1 ****           1
@<TRIPOS>SET
DONOR_HYDROGENS      STATIC     ATOMS    <user>   **** ""
4 16 17 18 19
ATOM$RED        STATIC     ATOMS    COLORGROUP SYSTEM
4 16 17 18 19
@<TRIPOS>COMMENT
> <Gold.Version>
2022.2.0

> <Gold.Id.Protein>
1qkm|1qkm_protein|mol2

> <Gold.Protein.RotatedTorsions>
[  496  491  490  487 ] final  124.68 input  -89.99 | X-H torsion

> <Gold.Protein.ActiveResidues>
 MET295  LEU298  THR299  LEU301  ALA302  GLU305  TRP335  MET336  LEU339  MET340 
 GLY342  LEU343  ARG346  PHE356  ILE373  ILE376  PHE377  LEU380  LYS471  GLY472 
 MET473  HIS475  LEU476  LEU477  ASN478  MET479  VAL484  VAL487 

> <Gold.Protein.RotatedAtoms>
   37.1157   32.9529   41.5509 H   0  0  0  0  0  0  0  0  0  0  0  0  # atno 496  bound_to 491 

> <Gold.Score>
     Score     S(PLP)   S(hbond)     S(cho)   S(metal)  DE(clash)   DE(tors)     intcor
     33.00     -29.23       1.26       0.00       0.00       0.00       0.00       0.00

> <Gold.PLP.Fitness>
32.9988

> <Gold.PLP.PLP>
-29.2290

> <Gold.PLP.part.hbond>
-2.0833

> <Gold.PLP.part.metal>
0.0000

> <Gold.PLP.part.buried>
-3.8932

> <Gold.PLP.part.nonpolar>
-23.6141

> <Gold.PLP.part.repulsive>
0.0508

> <Gold.PLP.ligand.clash>
0.0000

> <Gold.PLP.ligand.torsion>
0.0000

> <Gold.PLP.Chemscore.Hbond>
1.2566

> <Gold.PLP.Chemscore.CHOScore>
0.0000

> <Gold.PLP.Chemscore.Metal>
0.0000

> <Gold.Chemscore.Hbonds>
donor molecule, donor type, donor heavy atom, donor atom, acceptor molecule, acceptor atom, score
      L1  H     4    16       P1  3187  1.00
      L1  H     8    17       P1   470  0.26

> <Gold.PLP.Chemscore.Internal.Correction>
0.0000

