#       Name:                EN300-7549830_i001
#       Creating user name   aseyller
#       Creation time:       Fri Apr 21 16:50:57 2023


#       File generated by GOLD software.
#

@<TRIPOS>MOLECULE
EN300-7549830_i001|aminophenols|mol2|145|dock9
    19    19     1
SMALL
USER_CHARGES


@<TRIPOS>ATOM
      1 C1          30.4947  36.1026  39.2720 C.3            1 <1>                0.0000
      2 C2          29.0242  36.4180  39.3685 C.ar           1 <1>                0.0000
      3 C3          28.3617  36.9768  38.2853 C.ar           1 <1>                0.0000
      4 O4          29.0398  37.2394  37.1362 O.3            1 <1>                0.0000
      5 C5          27.0088  37.2673  38.3729 C.ar           1 <1>                0.0000
      6 C6          26.3165  37.0011  39.5398 C.ar           1 <1>                0.0000
      7 C7          26.9744  36.4431  40.6251 C.ar           1 <1>                0.0000
      8 N8          26.2723  36.1731  41.8085 N.pl3          1 <1>                0.0000
      9 C9          28.3325  36.1449  40.5364 C.ar           1 <1>                0.0000
     10 O10         28.9803  35.5971  41.5994 O.3            1 <1>                0.0000
     11 H11         31.0737  36.9672  39.5967 H              1 <1>                0.0000
     12 H12         30.7260  35.2499  39.9103 H              1 <1>                0.0000
     13 H13         30.7478  35.8628  38.2394 H              1 <1>                0.0000
     14 H14         26.4952  37.7027  37.5286 H              1 <1>                0.0000
     15 H15         25.2627  37.2282  39.6060 H              1 <1>                0.0000
     16 H16         29.2113  36.4577  36.5933 H              1 <1>                0.0000
     17 H17         25.3258  36.3768  41.8682 H              1 <1>                0.0000
     18 H18         26.7331  35.7826  42.5675 H              1 <1>                0.0000
     19 H19         29.9350  35.5070  41.4744 H              1 <1>                0.0000
@<TRIPOS>BOND
    1    1    2 1     
    2    1   11 1     
    3    1   12 1     
    4    1   13 1     
    5    2    3 ar    
    6    2    9 ar    
    7    3    4 1     
    8    3    5 ar    
    9    4   16 1     
   10    5    6 ar    
   11    5   14 1     
   12    6    7 ar    
   13    6   15 1     
   14    7    8 1     
   15    7    9 ar    
   16    8   17 1     
   17    8   18 1     
   18    9   10 1     
   19   10   19 1     
@<TRIPOS>SUBSTRUCTURE
      1 ****           1
@<TRIPOS>SET
DONOR_HYDROGENS      STATIC     ATOMS    <user>   **** ""
4 16 17 18 19
ATOM$RED        STATIC     ATOMS    COLORGROUP SYSTEM
4 16 17 18 19
@<TRIPOS>COMMENT
> <Gold.Version>
2022.2.0

> <Gold.Id.Protein>
1qkm|1qkm_protein|mol2

> <Gold.Protein.RotatedTorsions>
[  496  491  490  487 ] final  104.24 input  -89.99 | X-H torsion

> <Gold.Protein.ActiveResidues>
 MET295  LEU298  THR299  LEU301  ALA302  GLU305  TRP335  MET336  LEU339  MET340 
 GLY342  LEU343  ARG346  PHE356  ILE373  ILE376  PHE377  LEU380  LYS471  GLY472 
 MET473  HIS475  LEU476  LEU477  ASN478  MET479  VAL484  VAL487 

> <Gold.Protein.RotatedAtoms>
   36.9494   32.9545   41.8414 H   0  0  0  0  0  0  0  0  0  0  0  0  # atno 496  bound_to 491 

> <Gold.Score>
     Score     S(PLP)   S(hbond)     S(cho)   S(metal)  DE(clash)   DE(tors)     intcor
     37.66     -32.98       1.56       0.00       0.00       0.00       0.00       0.00

> <Gold.PLP.Fitness>
37.6573

> <Gold.PLP.PLP>
-32.9773

> <Gold.PLP.part.hbond>
-2.0958

> <Gold.PLP.part.metal>
0.0000

> <Gold.PLP.part.buried>
-4.0940

> <Gold.PLP.part.nonpolar>
-27.4621

> <Gold.PLP.part.repulsive>
0.0639

> <Gold.PLP.ligand.clash>
0.0000

> <Gold.PLP.ligand.torsion>
0.0000

> <Gold.PLP.Chemscore.Hbond>
1.5600

> <Gold.PLP.Chemscore.CHOScore>
0.0000

> <Gold.PLP.Chemscore.Metal>
0.0000

> <Gold.Chemscore.Hbonds>
donor molecule, donor type, donor heavy atom, donor atom, acceptor molecule, acceptor atom, score
      L1  H     8    18       P1   582  0.56
      L1  H    10    19       P1   470  1.00

> <Gold.PLP.Chemscore.Internal.Correction>
0.0000

