#       Name:                EN300-7549830_i001
#       Creating user name   aseyller
#       Creation time:       Fri Apr 21 16:51:01 2023


#       File generated by GOLD software.
#

@<TRIPOS>MOLECULE
EN300-7549830_i001|aminophenols|mol2|145|dock19
    19    19     1
SMALL
USER_CHARGES


@<TRIPOS>ATOM
      1 C1          25.6225  36.3876  41.2256 C.3            1 <1>                0.0000
      2 C2          26.9167  36.4848  40.4594 C.ar           1 <1>                0.0000
      3 C3          28.0719  35.9139  40.9732 C.ar           1 <1>                0.0000
      4 O4          28.0358  35.2658  42.1683 O.3            1 <1>                0.0000
      5 C5          29.2631  36.0026  40.2693 C.ar           1 <1>                0.0000
      6 C6          29.3029  36.6605  39.0538 C.ar           1 <1>                0.0000
      7 C7          28.1511  37.2330  38.5365 C.ar           1 <1>                0.0000
      8 N8          28.1915  37.9001  37.3038 N.pl3          1 <1>                0.0000
      9 C9          26.9520  37.1393  39.2398 C.ar           1 <1>                0.0000
     10 O10         25.8205  37.6997  38.7346 O.3            1 <1>                0.0000
     11 H11         25.5306  37.2440  41.8935 H              1 <1>                0.0000
     12 H12         24.7863  36.3805  40.5266 H              1 <1>                0.0000
     13 H13         25.6149  35.4680  41.8106 H              1 <1>                0.0000
     14 H14         30.1613  35.5577  40.6712 H              1 <1>                0.0000
     15 H15         30.2318  36.7285  38.5070 H              1 <1>                0.0000
     16 H16         27.1490  35.1857  42.5456 H              1 <1>                0.0000
     17 H17         29.0255  37.9613  36.8124 H              1 <1>                0.0000
     18 H18         27.3852  38.3005  36.9424 H              1 <1>                0.0000
     19 H19         25.9811  38.3477  38.0350 H              1 <1>                0.0000
@<TRIPOS>BOND
    1    1    2 1     
    2    1   11 1     
    3    1   12 1     
    4    1   13 1     
    5    2    3 ar    
    6    2    9 ar    
    7    3    4 1     
    8    3    5 ar    
    9    4   16 1     
   10    5    6 ar    
   11    5   14 1     
   12    6    7 ar    
   13    6   15 1     
   14    7    8 1     
   15    7    9 ar    
   16    8   17 1     
   17    8   18 1     
   18    9   10 1     
   19   10   19 1     
@<TRIPOS>SUBSTRUCTURE
      1 ****           1
@<TRIPOS>SET
DONOR_HYDROGENS      STATIC     ATOMS    <user>   **** ""
4 16 17 18 19
ATOM$RED        STATIC     ATOMS    COLORGROUP SYSTEM
4 16 17 18 19
@<TRIPOS>COMMENT
> <Gold.Version>
2022.2.0

> <Gold.Id.Protein>
1qkm|1qkm_protein|mol2

> <Gold.Protein.RotatedTorsions>
[  496  491  490  487 ] final -142.86 input  -89.99 | X-H torsion

> <Gold.Protein.ActiveResidues>
 MET295  LEU298  THR299  LEU301  ALA302  GLU305  TRP335  MET336  LEU339  MET340 
 GLY342  LEU343  ARG346  PHE356  ILE373  ILE376  PHE377  LEU380  LYS471  GLY472 
 MET473  HIS475  LEU476  LEU477  ASN478  MET479  VAL484  VAL487 

> <Gold.Protein.RotatedAtoms>
   37.1915   34.0304   40.7209 H   0  0  0  0  0  0  0  0  0  0  0  0  # atno 496  bound_to 491 

> <Gold.Score>
     Score     S(PLP)   S(hbond)     S(cho)   S(metal)  DE(clash)   DE(tors)     intcor
     34.13     -31.16       0.99       0.00       0.00       0.00       0.00       0.00

> <Gold.PLP.Fitness>
34.1316

> <Gold.PLP.PLP>
-31.1556

> <Gold.PLP.part.hbond>
-1.1951

> <Gold.PLP.part.metal>
0.0000

> <Gold.PLP.part.buried>
-2.8483

> <Gold.PLP.part.nonpolar>
-27.8349

> <Gold.PLP.part.repulsive>
0.0000

> <Gold.PLP.ligand.clash>
0.0000

> <Gold.PLP.ligand.torsion>
0.0000

> <Gold.PLP.Chemscore.Hbond>
0.9920

> <Gold.PLP.Chemscore.CHOScore>
0.0000

> <Gold.PLP.Chemscore.Metal>
0.0000

> <Gold.Chemscore.Hbonds>
donor molecule, donor type, donor heavy atom, donor atom, acceptor molecule, acceptor atom, score
      L1  H     4    16       P1   582  0.99

> <Gold.PLP.Chemscore.Internal.Correction>
0.0000

