#       Name:                EN300-7549830_i001
#       Creating user name   aseyller
#       Creation time:       Fri Apr 21 16:51:02 2023


#       File generated by GOLD software.
#

@<TRIPOS>MOLECULE
EN300-7549830_i001|aminophenols|mol2|145|dock20
    19    19     1
SMALL
USER_CHARGES


@<TRIPOS>ATOM
      1 C1          29.3386  37.8526  37.9090 C.3            1 <1>                0.0000
      2 C2          30.5104  36.9625  37.5835 C.ar           1 <1>                0.0000
      3 C3          30.9386  36.0153  38.5021 C.ar           1 <1>                0.0000
      4 O4          30.3001  35.8899  39.6962 O.3            1 <1>                0.0000
      5 C5          32.0164  35.1958  38.2037 C.ar           1 <1>                0.0000
      6 C6          32.6675  35.3206  36.9903 C.ar           1 <1>                0.0000
      7 C7          32.2434  36.2660  36.0693 C.ar           1 <1>                0.0000
      8 N8          32.9036  36.3925  34.8387 N.pl3          1 <1>                0.0000
      9 C9          31.1565  37.0860  36.3652 C.ar           1 <1>                0.0000
     10 O10         30.7382  38.0141  35.4634 O.3            1 <1>                0.0000
     11 H11         29.6954  38.7573  38.4012 H              1 <1>                0.0000
     12 H12         28.8192  38.1202  36.9889 H              1 <1>                0.0000
     13 H13         28.6540  37.3239  38.5722 H              1 <1>                0.0000
     14 H14         32.3484  34.4593  38.9204 H              1 <1>                0.0000
     15 H15         33.5069  34.6812  36.7599 H              1 <1>                0.0000
     16 H16         30.8891  35.6991  40.4390 H              1 <1>                0.0000
     17 H17         33.6574  35.8184  34.6314 H              1 <1>                0.0000
     18 H18         32.6065  37.0542  34.1946 H              1 <1>                0.0000
     19 H19         31.2941  38.8045  35.4257 H              1 <1>                0.0000
@<TRIPOS>BOND
    1    1    2 1     
    2    1   11 1     
    3    1   12 1     
    4    1   13 1     
    5    2    3 ar    
    6    2    9 ar    
    7    3    4 1     
    8    3    5 ar    
    9    4   16 1     
   10    5    6 ar    
   11    5   14 1     
   12    6    7 ar    
   13    6   15 1     
   14    7    8 1     
   15    7    9 ar    
   16    8   17 1     
   17    8   18 1     
   18    9   10 1     
   19   10   19 1     
@<TRIPOS>SUBSTRUCTURE
      1 ****           1
@<TRIPOS>SET
DONOR_HYDROGENS      STATIC     ATOMS    <user>   **** ""
4 16 17 18 19
ATOM$RED        STATIC     ATOMS    COLORGROUP SYSTEM
4 16 17 18 19
@<TRIPOS>COMMENT
> <Gold.Version>
2022.2.0

> <Gold.Id.Protein>
1qkm|1qkm_protein|mol2

> <Gold.Protein.RotatedTorsions>
[  496  491  490  487 ] final -126.87 input  -89.99 | X-H torsion

> <Gold.Protein.ActiveResidues>
 MET295  LEU298  THR299  LEU301  ALA302  GLU305  TRP335  MET336  LEU339  MET340 
 GLY342  LEU343  ARG346  PHE356  ILE373  ILE376  PHE377  LEU380  LYS471  GLY472 
 MET473  HIS475  LEU476  LEU477  ASN478  MET479  VAL484  VAL487 

> <Gold.Protein.RotatedAtoms>
   37.0811   34.2646   40.7632 H   0  0  0  0  0  0  0  0  0  0  0  0  # atno 496  bound_to 491 

> <Gold.Score>
     Score     S(PLP)   S(hbond)     S(cho)   S(metal)  DE(clash)   DE(tors)     intcor
     32.30     -29.30       1.00       0.00       0.00       0.00       0.00       0.00

> <Gold.PLP.Fitness>
32.3005

> <Gold.PLP.PLP>
-29.3005

> <Gold.PLP.part.hbond>
-1.2106

> <Gold.PLP.part.metal>
0.0000

> <Gold.PLP.part.buried>
-3.7364

> <Gold.PLP.part.nonpolar>
-24.3631

> <Gold.PLP.part.repulsive>
0.0624

> <Gold.PLP.ligand.clash>
0.0000

> <Gold.PLP.ligand.torsion>
0.0000

> <Gold.PLP.Chemscore.Hbond>
1.0000

> <Gold.PLP.Chemscore.CHOScore>
0.0000

> <Gold.PLP.Chemscore.Metal>
0.0000

> <Gold.Chemscore.Hbonds>
donor molecule, donor type, donor heavy atom, donor atom, acceptor molecule, acceptor atom, score
      L1  H     4    16       P1   470  1.00

> <Gold.PLP.Chemscore.Internal.Correction>
0.0000

