#       Name:                EN300-7549830_i001
#       Creating user name   aseyller
#       Creation time:       Fri Apr 21 16:50:59 2023


#       File generated by GOLD software.
#

@<TRIPOS>MOLECULE
EN300-7549830_i001|aminophenols|mol2|145|dock14
    19    19     1
SMALL
USER_CHARGES


@<TRIPOS>ATOM
      1 C1          26.5022  36.7040  41.3143 C.3            1 <1>                0.0000
      2 C2          27.4604  36.6872  40.1512 C.ar           1 <1>                0.0000
      3 C3          27.0709  37.2029  38.9237 C.ar           1 <1>                0.0000
      4 O4          25.8241  37.7241  38.7706 O.3            1 <1>                0.0000
      5 C5          27.9515  37.1880  37.8529 C.ar           1 <1>                0.0000
      6 C6          29.2199  36.6592  38.0055 C.ar           1 <1>                0.0000
      7 C7          29.6135  36.1423  39.2302 C.ar           1 <1>                0.0000
      8 N8          30.8998  35.6060  39.3850 N.pl3          1 <1>                0.0000
      9 C9          28.7318  36.1621  40.3088 C.ar           1 <1>                0.0000
     10 O10         29.1154  35.6561  41.5115 O.3            1 <1>                0.0000
     11 H11         25.9190  35.7831  41.3178 H              1 <1>                0.0000
     12 H12         27.0629  36.7826  42.2457 H              1 <1>                0.0000
     13 H13         25.8318  37.5583  41.2205 H              1 <1>                0.0000
     14 H14         27.6461  37.5897  36.8981 H              1 <1>                0.0000
     15 H15         29.9044  36.6486  37.1701 H              1 <1>                0.0000
     16 H16         25.7692  38.6722  38.9526 H              1 <1>                0.0000
     17 H17         31.5149  35.5964  38.6350 H              1 <1>                0.0000
     18 H18         31.1747  35.2445  40.2421 H              1 <1>                0.0000
     19 H19         30.0738  35.5914  41.6234 H              1 <1>                0.0000
@<TRIPOS>BOND
    1    1    2 1     
    2    1   11 1     
    3    1   12 1     
    4    1   13 1     
    5    2    3 ar    
    6    2    9 ar    
    7    3    4 1     
    8    3    5 ar    
    9    4   16 1     
   10    5    6 ar    
   11    5   14 1     
   12    6    7 ar    
   13    6   15 1     
   14    7    8 1     
   15    7    9 ar    
   16    8   17 1     
   17    8   18 1     
   18    9   10 1     
   19   10   19 1     
@<TRIPOS>SUBSTRUCTURE
      1 ****           1
@<TRIPOS>SET
DONOR_HYDROGENS      STATIC     ATOMS    <user>   **** ""
4 16 17 18 19
ATOM$RED        STATIC     ATOMS    COLORGROUP SYSTEM
4 16 17 18 19
@<TRIPOS>COMMENT
> <Gold.Version>
2022.2.0

> <Gold.Id.Protein>
1qkm|1qkm_protein|mol2

> <Gold.Protein.RotatedTorsions>
[  496  491  490  487 ] final   86.16 input  -89.99 | X-H torsion

> <Gold.Protein.ActiveResidues>
 MET295  LEU298  THR299  LEU301  ALA302  GLU305  TRP335  MET336  LEU339  MET340 
 GLY342  LEU343  ARG346  PHE356  ILE373  ILE376  PHE377  LEU380  LYS471  GLY472 
 MET473  HIS475  LEU476  LEU477  ASN478  MET479  VAL484  VAL487 

> <Gold.Protein.RotatedAtoms>
   36.7847   33.0490   42.0690 H   0  0  0  0  0  0  0  0  0  0  0  0  # atno 496  bound_to 491 

> <Gold.Score>
     Score     S(PLP)   S(hbond)     S(cho)   S(metal)  DE(clash)   DE(tors)     intcor
     36.14     -30.14       2.00       0.00       0.00       0.00       0.00       0.00

> <Gold.PLP.Fitness>
36.1370

> <Gold.PLP.PLP>
-30.1370

> <Gold.PLP.part.hbond>
-2.0000

> <Gold.PLP.part.metal>
0.0000

> <Gold.PLP.part.buried>
-2.9636

> <Gold.PLP.part.nonpolar>
-25.2001

> <Gold.PLP.part.repulsive>
0.0624

> <Gold.PLP.ligand.clash>
0.0000

> <Gold.PLP.ligand.torsion>
0.0000

> <Gold.PLP.Chemscore.Hbond>
2.0000

> <Gold.PLP.Chemscore.CHOScore>
0.0000

> <Gold.PLP.Chemscore.Metal>
0.0000

> <Gold.Chemscore.Hbonds>
donor molecule, donor type, donor heavy atom, donor atom, acceptor molecule, acceptor atom, score
      L1  H     8    18       P1   470  1.00
      L1  H    10    19       P1   470  1.00

> <Gold.PLP.Chemscore.Internal.Correction>
0.0000

