#       Name:                EN300-7549830_i001
#       Creating user name   aseyller
#       Creation time:       Fri Apr 21 16:51:00 2023


#       File generated by GOLD software.
#

@<TRIPOS>MOLECULE
EN300-7549830_i001|aminophenols|mol2|145|dock17
    19    19     1
SMALL
USER_CHARGES


@<TRIPOS>ATOM
      1 C1          30.0085  37.1102  38.0685 C.3            1 <1>                0.0000
      2 C2          28.7300  36.8774  38.8318 C.ar           1 <1>                0.0000
      3 C3          27.5524  37.4794  38.4131 C.ar           1 <1>                0.0000
      4 O4          27.5522  38.2793  37.3133 O.3            1 <1>                0.0000
      5 C5          26.3755  37.2660  39.1144 C.ar           1 <1>                0.0000
      6 C6          26.3725  36.4529  40.2328 C.ar           1 <1>                0.0000
      7 C7          27.5469  35.8495  40.6553 C.ar           1 <1>                0.0000
      8 N8          27.5438  35.0249  41.7894 N.pl3          1 <1>                0.0000
      9 C9          28.7291  36.0581  39.9479 C.ar           1 <1>                0.0000
     10 O10         29.8826  35.4671  40.3599 O.3            1 <1>                0.0000
     11 H11         30.5221  37.9804  38.4771 H              1 <1>                0.0000
     12 H12         30.6502  36.2338  38.1590 H              1 <1>                0.0000
     13 H13         29.7776  37.2847  37.0177 H              1 <1>                0.0000
     14 H14         25.4600  37.7360  38.7870 H              1 <1>                0.0000
     15 H15         25.4546  36.2880  40.7777 H              1 <1>                0.0000
     16 H16         28.3532  38.8118  37.2140 H              1 <1>                0.0000
     17 H17         26.7197  34.8764  42.2789 H              1 <1>                0.0000
     18 H18         28.3659  34.6029  42.0845 H              1 <1>                0.0000
     19 H19         30.4143  36.0140  40.9542 H              1 <1>                0.0000
@<TRIPOS>BOND
    1    1    2 1     
    2    1   11 1     
    3    1   12 1     
    4    1   13 1     
    5    2    3 ar    
    6    2    9 ar    
    7    3    4 1     
    8    3    5 ar    
    9    4   16 1     
   10    5    6 ar    
   11    5   14 1     
   12    6    7 ar    
   13    6   15 1     
   14    7    8 1     
   15    7    9 ar    
   16    8   17 1     
   17    8   18 1     
   18    9   10 1     
   19   10   19 1     
@<TRIPOS>SUBSTRUCTURE
      1 ****           1
@<TRIPOS>SET
DONOR_HYDROGENS      STATIC     ATOMS    <user>   **** ""
4 16 17 18 19
ATOM$RED        STATIC     ATOMS    COLORGROUP SYSTEM
4 16 17 18 19
@<TRIPOS>COMMENT
> <Gold.Version>
2022.2.0

> <Gold.Id.Protein>
1qkm|1qkm_protein|mol2

> <Gold.Protein.RotatedTorsions>
[  496  491  490  487 ] final  167.75 input  -89.99 | X-H torsion

> <Gold.Protein.ActiveResidues>
 MET295  LEU298  THR299  LEU301  ALA302  GLU305  TRP335  MET336  LEU339  MET340 
 GLY342  LEU343  ARG346  PHE356  ILE373  ILE376  PHE377  LEU380  LYS471  GLY472 
 MET473  HIS475  LEU476  LEU477  ASN478  MET479  VAL484  VAL487 

> <Gold.Protein.RotatedAtoms>
   37.3125   33.2972   40.9832 H   0  0  0  0  0  0  0  0  0  0  0  0  # atno 496  bound_to 491 

> <Gold.Score>
     Score     S(PLP)   S(hbond)     S(cho)   S(metal)  DE(clash)   DE(tors)     intcor
     34.88     -31.04       1.28       0.00       0.00       0.00       0.00       0.00

> <Gold.PLP.Fitness>
34.8791

> <Gold.PLP.PLP>
-31.0391

> <Gold.PLP.part.hbond>
-1.9434

> <Gold.PLP.part.metal>
0.0000

> <Gold.PLP.part.buried>
-4.1833

> <Gold.PLP.part.nonpolar>
-26.1887

> <Gold.PLP.part.repulsive>
0.0720

> <Gold.PLP.ligand.clash>
0.0000

> <Gold.PLP.ligand.torsion>
0.0000

> <Gold.PLP.Chemscore.Hbond>
1.2800

> <Gold.PLP.Chemscore.CHOScore>
0.0000

> <Gold.PLP.Chemscore.Metal>
0.0000

> <Gold.Chemscore.Hbonds>
donor molecule, donor type, donor heavy atom, donor atom, acceptor molecule, acceptor atom, score
      L1  H     8    17       P1   582  0.90
      L1  H    10    19       P1   470  0.38

> <Gold.PLP.Chemscore.Internal.Correction>
0.0000

