#       Name:                plp ligand
#       Creating user name   aseyller
#       Creation time:       Fri Apr 21 16:50:52 2023


#       File generated by GOLD software.
#

@<TRIPOS>MOLECULE
plp ligand
    19    19     1
SMALL
USER_CHARGES


@<TRIPOS>ATOM
      1 C1           1.4559   1.8823  -0.1120 NONPOLAR       1 <1>                0.0000
      2 C2           0.6974   0.5801  -0.1002 NONPOLAR       1 <1>                0.0000
      3 C3           1.3861  -0.6241  -0.0938 NONPOLAR       1 <1>                0.0000
      4 O4           2.7460  -0.6289  -0.0976 DONACC         1 <1>                0.0000
      5 C5           0.6894  -1.8228  -0.0829 NONPOLAR       1 <1>                0.0000
      6 C6          -0.6933  -1.8212  -0.0786 NONPOLAR       1 <1>                0.0000
      7 C7          -1.3859  -0.6203  -0.0854 NONPOLAR       1 <1>                0.0000
      8 N8          -2.7881  -0.6187  -0.0810 DONOR          1 <1>                0.0000
      9 C9          -0.6871   0.5851  -0.0901 NONPOLAR       1 <1>                0.0000
     10 O10         -1.3640   1.7647  -0.0964 DONACC         1 <1>                0.0000
     11 H11          1.6354   2.1888  -1.1425                1 <1>                0.0000
     12 H12          0.8713   2.6478   0.3982                1 <1>                0.0000
     13 H13          2.4094   1.7520   0.3997                1 <1>                0.0000
     14 H14          1.2275  -2.7591  -0.0783                1 <1>                0.0000
     15 H15         -1.2341  -2.7561  -0.0701                1 <1>                0.0000
     16 H16          3.1418  -0.6241   0.7847                1 <1>                0.0000
     17 H17         -3.2741  -1.4581  -0.0732                1 <1>                0.0000
     18 H18         -3.2722   0.2219  -0.0857                1 <1>                0.0000
     19 H19         -1.5609   2.1099   0.7852                1 <1>                0.0000
@<TRIPOS>BOND
    1    1    2 1     
    2    1   11 1     
    3    1   12 1     
    4    1   13 1     
    5    2    3 ar    
    6    2    9 ar    
    7    3    4 1     
    8    3    5 ar    
    9    4   16 1     
   10    5    6 ar    
   11    5   14 1     
   12    6    7 ar    
   13    6   15 1     
   14    7    8 1     
   15    7    9 ar    
   16    8   17 1     
   17    8   18 1     
   18    9   10 1     
   19   10   19 1     
@<TRIPOS>SUBSTRUCTURE
      1 ****           1
@<TRIPOS>SET
DONOR_HYDROGENS      STATIC     ATOMS    <user>   **** ""
4 16 17 18 19
ATOM$RED        STATIC     ATOMS    COLORGROUP SYSTEM
4 16 17 18 19
