#       Name:                EN300-7425367_i001
#       Creating user name   aseyller
#       Creation time:       Fri Apr 21 16:41:30 2023


#       File generated by GOLD software.
#

@<TRIPOS>MOLECULE
EN300-7425367_i001|aminophenols|mol2|96|dock2
    38    38     1
SMALL
USER_CHARGES


@<TRIPOS>ATOM
      1 C1          34.0199  36.4159  35.1976 C.3            1 <1>                0.0000
      2 C2          32.9104  36.3897  36.2506 C.3            1 <1>                0.0000
      3 C3          32.0433  35.1457  36.0472 C.3            1 <1>                0.0000
      4 C4          33.5337  36.3540  37.6475 C.3            1 <1>                0.0000
      5 O5          32.0887  37.5795  36.1176 O.3            1 <1>                0.0000
      6 C6          30.9845  37.6487  36.8850 C.2            1 <1>                0.0000
      7 O7          30.8402  36.8775  37.8128 O.2            1 <1>                0.0000
      8 N8          30.0394  38.5735  36.6241 N.am           1 <1>                0.0000
      9 C9          28.8381  38.6488  37.4591 C.3            1 <1>                0.0000
     10 C10         28.0847  37.3190  37.3898 C.3            1 <1>                0.0000
     11 C11         27.3424  37.0943  38.6820 C.ar           1 <1>                0.0000
     12 C12         26.0415  37.5426  38.8169 C.ar           1 <1>                0.0000
     13 C13         25.3555  37.3396  40.0003 C.ar           1 <1>                0.0000
     14 C14         25.9710  36.6854  41.0546 C.ar           1 <1>                0.0000
     15 O15         25.2974  36.4847  42.2189 O.3            1 <1>                0.0000
     16 C16         27.2818  36.2329  40.9193 C.ar           1 <1>                0.0000
     17 N17         27.9087  35.5712  41.9814 N.pl3          1 <1>                0.0000
     18 C18         27.9619  36.4355  39.7273 C.ar           1 <1>                0.0000
     19 H19         33.5759  36.4413  34.2024 H              1 <1>                0.0000
     20 H20         34.6377  37.3021  35.3425 H              1 <1>                0.0000
     21 H21         34.6368  35.5227  35.2974 H              1 <1>                0.0000
     22 H22         32.6601  34.2526  36.1470 H              1 <1>                0.0000
     23 H23         31.2528  35.1271  36.7974 H              1 <1>                0.0000
     24 H24         31.5992  35.1711  35.0520 H              1 <1>                0.0000
     25 H25         34.1514  37.2402  37.7925 H              1 <1>                0.0000
     26 H26         32.7431  36.3354  38.3978 H              1 <1>                0.0000
     27 H27         34.1505  35.4609  37.7474 H              1 <1>                0.0000
     28 H28         29.1250  38.8505  38.4911 H              1 <1>                0.0000
     29 H29         28.1941  39.4505  37.0977 H              1 <1>                0.0000
     30 H30         27.3749  37.3462  36.5630 H              1 <1>                0.0000
     31 H31         28.7945  36.5070  37.2326 H              1 <1>                0.0000
     32 H32         25.5599  38.0528  37.9960 H              1 <1>                0.0000
     33 H33         24.3397  37.6917  40.1027 H              1 <1>                0.0000
     34 H34         28.9781  36.0859  39.6191 H              1 <1>                0.0000
     35 H35         30.1547  39.1891  35.8833 H              1 <1>                0.0000
     36 H36         25.6003  35.7160  42.7213 H              1 <1>                0.0000
     37 H37         27.4308  35.4270  42.8130 H              1 <1>                0.0000
     38 H38         28.8214  35.2566  41.8857 H              1 <1>                0.0000
@<TRIPOS>BOND
    1    1    2 1     
    2    1   19 1     
    3    1   20 1     
    4    1   21 1     
    5    2    3 1     
    6    2    4 1     
    7    2    5 1     
    8    3   22 1     
    9    3   23 1     
   10    3   24 1     
   11    4   25 1     
   12    4   26 1     
   13    4   27 1     
   14    5    6 1     
   15    6    7 2     
   16    6    8 am    
   17    8    9 1     
   18    8   35 1     
   19    9   10 1     
   20    9   28 1     
   21    9   29 1     
   22   10   11 1     
   23   10   30 1     
   24   10   31 1     
   25   11   12 ar    
   26   11   18 ar    
   27   12   13 ar    
   28   12   32 1     
   29   13   14 ar    
   30   13   33 1     
   31   14   15 1     
   32   14   16 ar    
   33   15   36 1     
   34   16   17 1     
   35   16   18 ar    
   36   17   37 1     
   37   17   38 1     
   38   18   34 1     
@<TRIPOS>SUBSTRUCTURE
      1 ****           1
@<TRIPOS>SET
DONOR_HYDROGENS      STATIC     ATOMS    <user>   **** ""
4 35 36 37 38
ATOM$RED        STATIC     ATOMS    COLORGROUP SYSTEM
4 35 36 37 38
@<TRIPOS>COMMENT
> <Gold.Version>
2022.2.0

> <Gold.Id.Protein>
1qkm|1qkm_protein|mol2

> <Gold.Protein.RotatedTorsions>
[  496  491  490  487 ] final  107.90 input  -89.99 | X-H torsion

> <Gold.Protein.ActiveResidues>
 MET295  LEU298  THR299  LEU301  ALA302  GLU305  TRP335  MET336  LEU339  MET340 
 GLY342  LEU343  ARG346  PHE356  ILE373  ILE376  PHE377  LEU380  LYS471  GLY472 
 MET473  HIS475  LEU476  LEU477  ASN478  MET479  VAL484  VAL487 

> <Gold.Protein.RotatedAtoms>
   36.9813   32.9459   41.7910 H   0  0  0  0  0  0  0  0  0  0  0  0  # atno 496  bound_to 491 

> <Gold.Score>
     Score     S(PLP)   S(hbond)     S(cho)   S(metal)  DE(clash)   DE(tors)     intcor
     61.44     -54.78       2.53       0.00       0.00       0.04       0.75       0.61

> <Gold.PLP.Fitness>
61.4355

> <Gold.PLP.PLP>
-54.7802

> <Gold.PLP.part.hbond>
-3.0000

> <Gold.PLP.part.metal>
0.0000

> <Gold.PLP.part.buried>
-6.5058

> <Gold.PLP.part.nonpolar>
-46.0843

> <Gold.PLP.part.repulsive>
0.0990

> <Gold.PLP.ligand.clash>
0.0428

> <Gold.PLP.ligand.torsion>
0.7496

> <Gold.PLP.Chemscore.Hbond>
2.5280

> <Gold.PLP.Chemscore.CHOScore>
0.0000

> <Gold.PLP.Chemscore.Metal>
0.0000

> <Gold.Chemscore.Hbonds>
donor molecule, donor type, donor heavy atom, donor atom, acceptor molecule, acceptor atom, score
      L1  H    15    36       P1   582  1.00
      L1  H    17    37       P1   582  1.00
      P1  H  1258  1270       L1    15  0.53

> <Gold.PLP.Chemscore.Internal.Correction>
0.6134

