#       Name:                EN300-7425367_i001
#       Creating user name   aseyller
#       Creation time:       Fri Apr 21 16:41:54 2023


#       File generated by GOLD software.
#

@<TRIPOS>MOLECULE
EN300-7425367_i001|aminophenols|mol2|96|dock15
    38    38     1
SMALL
USER_CHARGES


@<TRIPOS>ATOM
      1 C1          33.3843  36.4442  35.9076 C.3            1 <1>                0.0000
      2 C2          33.0082  35.7900  37.2385 C.3            1 <1>                0.0000
      3 C3          32.2632  34.4807  36.9707 C.3            1 <1>                0.0000
      4 C4          34.2782  35.4991  38.0407 C.3            1 <1>                0.0000
      5 O5          32.1532  36.6876  37.9945 O.3            1 <1>                0.0000
      6 C6          30.9970  37.0627  37.4155 C.2            1 <1>                0.0000
      7 O7          30.7373  36.6988  36.2856 O.2            1 <1>                0.0000
      8 N8          30.1276  37.8417  38.0891 N.am           1 <1>                0.0000
      9 C9          28.8696  38.2498  37.4591 C.3            1 <1>                0.0000
     10 C10         27.9568  37.0314  37.3068 C.3            1 <1>                0.0000
     11 C11         27.1712  36.8305  38.5771 C.ar           1 <1>                0.0000
     12 C12         26.0447  37.5945  38.8194 C.ar           1 <1>                0.0000
     13 C13         25.3200  37.4149  39.9834 C.ar           1 <1>                0.0000
     14 C14         25.7216  36.4673  40.9103 C.ar           1 <1>                0.0000
     15 O15         25.0095  36.2892  42.0553 O.3            1 <1>                0.0000
     16 C16         26.8564  35.6966  40.6667 C.ar           1 <1>                0.0000
     17 N17         27.2668  34.7376  41.5999 N.pl3          1 <1>                0.0000
     18 C18         27.5753  35.8788  39.4944 C.ar           1 <1>                0.0000
     19 H19         32.4796  36.6513  35.3361 H              1 <1>                0.0000
     20 H20         33.9151  37.3768  36.0983 H              1 <1>                0.0000
     21 H21         34.0262  35.7703  35.3400 H              1 <1>                0.0000
     22 H22         32.9050  33.8070  36.4033 H              1 <1>                0.0000
     23 H23         31.9953  34.0147  37.9190 H              1 <1>                0.0000
     24 H24         31.3584  34.6879  36.3992 H              1 <1>                0.0000
     25 H25         34.8091  36.4318  38.2314 H              1 <1>                0.0000
     26 H26         34.0103  35.0331  38.9889 H              1 <1>                0.0000
     27 H27         34.9201  34.8253  37.4731 H              1 <1>                0.0000
     28 H28         28.3773  38.9971  38.0814 H              1 <1>                0.0000
     29 H29         29.0762  38.6741  36.4766 H              1 <1>                0.0000
     30 H30         27.2697  37.1938  36.4765 H              1 <1>                0.0000
     31 H31         28.5618  36.1465  37.1100 H              1 <1>                0.0000
     32 H32         25.7300  38.3338  38.0979 H              1 <1>                0.0000
     33 H33         24.4410  38.0138  40.1700 H              1 <1>                0.0000
     34 H34         28.4555  35.2830  39.3024 H              1 <1>                0.0000
     35 H35         30.3350  38.1322  38.9911 H              1 <1>                0.0000
     36 H36         25.2542  35.4961  42.5515 H              1 <1>                0.0000
     37 H37         26.7610  34.6087  42.4175 H              1 <1>                0.0000
     38 H38         28.0571  34.2016  41.4289 H              1 <1>                0.0000
@<TRIPOS>BOND
    1    1    2 1     
    2    1   19 1     
    3    1   20 1     
    4    1   21 1     
    5    2    3 1     
    6    2    4 1     
    7    2    5 1     
    8    3   22 1     
    9    3   23 1     
   10    3   24 1     
   11    4   25 1     
   12    4   26 1     
   13    4   27 1     
   14    5    6 1     
   15    6    7 2     
   16    6    8 am    
   17    8    9 1     
   18    8   35 1     
   19    9   10 1     
   20    9   28 1     
   21    9   29 1     
   22   10   11 1     
   23   10   30 1     
   24   10   31 1     
   25   11   12 ar    
   26   11   18 ar    
   27   12   13 ar    
   28   12   32 1     
   29   13   14 ar    
   30   13   33 1     
   31   14   15 1     
   32   14   16 ar    
   33   15   36 1     
   34   16   17 1     
   35   16   18 ar    
   36   17   37 1     
   37   17   38 1     
   38   18   34 1     
@<TRIPOS>SUBSTRUCTURE
      1 ****           1
@<TRIPOS>SET
DONOR_HYDROGENS      STATIC     ATOMS    <user>   **** ""
4 35 36 37 38
ATOM$RED        STATIC     ATOMS    COLORGROUP SYSTEM
4 35 36 37 38
@<TRIPOS>COMMENT
> <Gold.Version>
2022.2.0

> <Gold.Id.Protein>
1qkm|1qkm_protein|mol2

> <Gold.Protein.RotatedTorsions>
[  496  491  490  487 ] final  -49.62 input  -89.99 | X-H torsion

> <Gold.Protein.ActiveResidues>
 MET295  LEU298  THR299  LEU301  ALA302  GLU305  TRP335  MET336  LEU339  MET340 
 GLY342  LEU343  ARG346  PHE356  ILE373  ILE376  PHE377  LEU380  LYS471  GLY472 
 MET473  HIS475  LEU476  LEU477  ASN478  MET479  VAL484  VAL487 

> <Gold.Protein.RotatedAtoms>
   36.4221   34.7026   41.6351 H   0  0  0  0  0  0  0  0  0  0  0  0  # atno 496  bound_to 491 

> <Gold.Score>
     Score     S(PLP)   S(hbond)     S(cho)   S(metal)  DE(clash)   DE(tors)     intcor
     53.16     -47.90       2.70       0.00       0.00       2.30       0.48       0.44

> <Gold.PLP.Fitness>
53.1603

> <Gold.PLP.PLP>
-47.8988

> <Gold.PLP.part.hbond>
-2.9732

> <Gold.PLP.part.metal>
0.0000

> <Gold.PLP.part.buried>
-3.8831

> <Gold.PLP.part.nonpolar>
-44.5310

> <Gold.PLP.part.repulsive>
0.1076

> <Gold.PLP.ligand.clash>
2.3028

> <Gold.PLP.ligand.torsion>
0.4822

> <Gold.PLP.Chemscore.Hbond>
2.6950

> <Gold.PLP.Chemscore.CHOScore>
0.0000

> <Gold.PLP.Chemscore.Metal>
0.0000

> <Gold.Chemscore.Hbonds>
donor molecule, donor type, donor heavy atom, donor atom, acceptor molecule, acceptor atom, score
      L1  H    15    36       P1   582  1.00
      L1  H    17    37       P1   582  0.98
      P1  H  1258  1270       L1    15  0.72

> <Gold.PLP.Chemscore.Internal.Correction>
0.4437

