#       Name:                EN300-7425367_i001
#       Creating user name   aseyller
#       Creation time:       Fri Apr 21 16:41:41 2023


#       File generated by GOLD software.
#

@<TRIPOS>MOLECULE
EN300-7425367_i001|aminophenols|mol2|96|dock8
    38    38     1
SMALL
USER_CHARGES


@<TRIPOS>ATOM
      1 C1          30.7662  39.5462  36.0096 C.3            1 <1>                0.0000
      2 C2          31.2361  38.1856  35.4912 C.3            1 <1>                0.0000
      3 C3          30.0236  37.3564  35.0632 C.3            1 <1>                0.0000
      4 C4          32.1636  38.3895  34.2915 C.3            1 <1>                0.0000
      5 O5          31.9526  37.4877  36.5438 O.3            1 <1>                0.0000
      6 C6          31.2245  37.0329  37.5810 C.2            1 <1>                0.0000
      7 O7          30.2143  37.6184  37.9172 O.2            1 <1>                0.0000
      8 N8          31.6162  35.9282  38.2463 N.am           1 <1>                0.0000
      9 C9          30.8240  35.4333  39.3748 C.3            1 <1>                0.0000
     10 C10         29.5981  34.6846  38.8480 C.3            1 <1>                0.0000
     11 C11         28.3519  35.4633  39.1824 C.ar           1 <1>                0.0000
     12 C12         27.7262  36.2160  38.2060 C.ar           1 <1>                0.0000
     13 C13         26.5826  36.9329  38.5071 C.ar           1 <1>                0.0000
     14 C14         26.0606  36.8981  39.7894 C.ar           1 <1>                0.0000
     15 O15         24.9357  37.6023  40.0868 O.3            1 <1>                0.0000
     16 C16         26.6902  36.1395  40.7739 C.ar           1 <1>                0.0000
     17 N17         26.1671  36.1007  42.0716 N.pl3          1 <1>                0.0000
     18 C18         27.8341  35.4188  40.4632 C.ar           1 <1>                0.0000
     19 H19         30.1054  39.4009  36.8642 H              1 <1>                0.0000
     20 H20         31.6299  40.1369  36.3145 H              1 <1>                0.0000
     21 H21         30.2283  40.0701  35.2194 H              1 <1>                0.0000
     22 H22         29.4858  37.8803  34.2730 H              1 <1>                0.0000
     23 H23         30.3584  36.3871  34.6938 H              1 <1>                0.0000
     24 H24         29.3628  37.2111  35.9178 H              1 <1>                0.0000
     25 H25         33.0274  38.9803  34.5964 H              1 <1>                0.0000
     26 H26         32.4984  37.4202  33.9222 H              1 <1>                0.0000
     27 H27         31.6257  38.9134  33.5013 H              1 <1>                0.0000
     28 H28         31.4316  34.7574  39.9766 H              1 <1>                0.0000
     29 H29         30.5003  36.2743  39.9880 H              1 <1>                0.0000
     30 H30         29.6775  34.5730  37.7667 H              1 <1>                0.0000
     31 H31         29.5466  33.6998  39.3121 H              1 <1>                0.0000
     32 H32         28.1317  36.2443  37.2055 H              1 <1>                0.0000
     33 H33         26.0967  37.5203  37.7422 H              1 <1>                0.0000
     34 H34         28.3246  34.8297  41.2240 H              1 <1>                0.0000
     35 H35         32.4227  35.4608  37.9779 H              1 <1>                0.0000
     36 H36         24.1138  37.1361  39.8814 H              1 <1>                0.0000
     37 H37         25.3652  36.6023  42.2865 H              1 <1>                0.0000
     38 H38         26.6065  35.5721  42.7560 H              1 <1>                0.0000
@<TRIPOS>BOND
    1    1    2 1     
    2    1   19 1     
    3    1   20 1     
    4    1   21 1     
    5    2    3 1     
    6    2    4 1     
    7    2    5 1     
    8    3   22 1     
    9    3   23 1     
   10    3   24 1     
   11    4   25 1     
   12    4   26 1     
   13    4   27 1     
   14    5    6 1     
   15    6    7 2     
   16    6    8 am    
   17    8    9 1     
   18    8   35 1     
   19    9   10 1     
   20    9   28 1     
   21    9   29 1     
   22   10   11 1     
   23   10   30 1     
   24   10   31 1     
   25   11   12 ar    
   26   11   18 ar    
   27   12   13 ar    
   28   12   32 1     
   29   13   14 ar    
   30   13   33 1     
   31   14   15 1     
   32   14   16 ar    
   33   15   36 1     
   34   16   17 1     
   35   16   18 ar    
   36   17   37 1     
   37   17   38 1     
   38   18   34 1     
@<TRIPOS>SUBSTRUCTURE
      1 ****           1
@<TRIPOS>SET
DONOR_HYDROGENS      STATIC     ATOMS    <user>   **** ""
4 35 36 37 38
ATOM$RED        STATIC     ATOMS    COLORGROUP SYSTEM
4 35 36 37 38
@<TRIPOS>COMMENT
> <Gold.Version>
2022.2.0

> <Gold.Id.Protein>
1qkm|1qkm_protein|mol2

> <Gold.Protein.RotatedTorsions>
[  496  491  490  487 ] final   75.48 input  -89.99 | X-H torsion

> <Gold.Protein.ActiveResidues>
 MET295  LEU298  THR299  LEU301  ALA302  GLU305  TRP335  MET336  LEU339  MET340 
 GLY342  LEU343  ARG346  PHE356  ILE373  ILE376  PHE377  LEU380  LYS471  GLY472 
 MET473  HIS475  LEU476  LEU477  ASN478  MET479  VAL484  VAL487 

> <Gold.Protein.RotatedAtoms>
   36.6866   33.1423   42.1807 H   0  0  0  0  0  0  0  0  0  0  0  0  # atno 496  bound_to 491 

> <Gold.Score>
     Score     S(PLP)   S(hbond)     S(cho)   S(metal)  DE(clash)   DE(tors)     intcor
     51.08     -47.99       1.66       0.00       0.00       0.00       1.19       0.50

> <Gold.PLP.Fitness>
51.0833

> <Gold.PLP.PLP>
-47.9904

> <Gold.PLP.part.hbond>
-1.2560

> <Gold.PLP.part.metal>
0.0000

> <Gold.PLP.part.buried>
-1.0103

> <Gold.PLP.part.nonpolar>
-46.6429

> <Gold.PLP.part.repulsive>
0.1090

> <Gold.PLP.ligand.clash>
0.0000

> <Gold.PLP.ligand.torsion>
1.1877

> <Gold.PLP.Chemscore.Hbond>
1.6560

> <Gold.PLP.Chemscore.CHOScore>
0.0000

> <Gold.PLP.Chemscore.Metal>
0.0000

> <Gold.Chemscore.Hbonds>
donor molecule, donor type, donor heavy atom, donor atom, acceptor molecule, acceptor atom, score
      L1  H    15    36       P1  1131  1.00
      L1  H    17    38       P1   582  0.66

> <Gold.PLP.Chemscore.Internal.Correction>
0.5003

