#       Name:                EN300-7425367_i001
#       Creating user name   aseyller
#       Creation time:       Fri Apr 21 16:41:37 2023


#       File generated by GOLD software.
#

@<TRIPOS>MOLECULE
EN300-7425367_i001|aminophenols|mol2|96|dock6
    38    38     1
SMALL
USER_CHARGES


@<TRIPOS>ATOM
      1 C1          32.0892  35.6904  35.3826 C.3            1 <1>                0.0000
      2 C2          32.6327  37.1098  35.5581 C.3            1 <1>                0.0000
      3 C3          34.1348  37.0492  35.8421 C.3            1 <1>                0.0000
      4 C4          32.3876  37.9116  34.2782 C.3            1 <1>                0.0000
      5 O5          31.9554  37.7534  36.6695 O.3            1 <1>                0.0000
      6 C6          30.6315  37.9618  36.5407 C.2            1 <1>                0.0000
      7 O7          30.0258  37.4647  35.6119 O.2            1 <1>                0.0000
      8 N8          29.9780  38.7215  37.4419 N.am           1 <1>                0.0000
      9 C9          28.5375  38.9481  37.3017 C.3            1 <1>                0.0000
     10 C10         27.8098  37.6026  37.2748 C.3            1 <1>                0.0000
     11 C11         27.8611  36.9762  38.6446 C.ar           1 <1>                0.0000
     12 C12         29.0347  36.4023  39.0968 C.ar           1 <1>                0.0000
     13 C13         29.0877  35.8257  40.3527 C.ar           1 <1>                0.0000
     14 C14         27.9634  35.8223  41.1615 C.ar           1 <1>                0.0000
     15 O15         28.0142  35.2560  42.3971 O.3            1 <1>                0.0000
     16 C16         26.7804  36.4009  40.7067 C.ar           1 <1>                0.0000
     17 N17         25.6412  36.4003  41.5198 N.pl3          1 <1>                0.0000
     18 C18         26.7363  36.9820  39.4478 C.ar           1 <1>                0.0000
     19 H19         32.2638  35.1192  36.2943 H              1 <1>                0.0000
     20 H20         31.0191  35.7335  35.1801 H              1 <1>                0.0000
     21 H21         32.5976  35.2072  34.5482 H              1 <1>                0.0000
     22 H22         34.6432  36.5661  35.0078 H              1 <1>                0.0000
     23 H23         34.5220  38.0605  35.9672 H              1 <1>                0.0000
     24 H24         34.3094  36.4780  36.7540 H              1 <1>                0.0000
     25 H25         31.3175  37.9547  34.0757 H              1 <1>                0.0000
     26 H26         32.7748  38.9228  34.4032 H              1 <1>                0.0000
     27 H27         32.8961  37.4284  33.4438 H              1 <1>                0.0000
     28 H28         28.1788  39.5384  38.1450 H              1 <1>                0.0000
     29 H29         28.3428  39.4852  36.3734 H              1 <1>                0.0000
     30 H30         26.7706  37.7573  36.9847 H              1 <1>                0.0000
     31 H31         28.2935  36.9423  36.5550 H              1 <1>                0.0000
     32 H32         29.9124  36.4040  38.4677 H              1 <1>                0.0000
     33 H33         30.0059  35.3776  40.7027 H              1 <1>                0.0000
     34 H34         25.8208  37.4314  39.0922 H              1 <1>                0.0000
     35 H35         30.4616  39.1183  38.1833 H              1 <1>                0.0000
     36 H36         27.1591  34.9421  42.7214 H              1 <1>                0.0000
     37 H37         25.6745  35.9968  42.4012 H              1 <1>                0.0000
     38 H38         24.8182  36.8035  41.2018 H              1 <1>                0.0000
@<TRIPOS>BOND
    1    1    2 1     
    2    1   19 1     
    3    1   20 1     
    4    1   21 1     
    5    2    3 1     
    6    2    4 1     
    7    2    5 1     
    8    3   22 1     
    9    3   23 1     
   10    3   24 1     
   11    4   25 1     
   12    4   26 1     
   13    4   27 1     
   14    5    6 1     
   15    6    7 2     
   16    6    8 am    
   17    8    9 1     
   18    8   35 1     
   19    9   10 1     
   20    9   28 1     
   21    9   29 1     
   22   10   11 1     
   23   10   30 1     
   24   10   31 1     
   25   11   12 ar    
   26   11   18 ar    
   27   12   13 ar    
   28   12   32 1     
   29   13   14 ar    
   30   13   33 1     
   31   14   15 1     
   32   14   16 ar    
   33   15   36 1     
   34   16   17 1     
   35   16   18 ar    
   36   17   37 1     
   37   17   38 1     
   38   18   34 1     
@<TRIPOS>SUBSTRUCTURE
      1 ****           1
@<TRIPOS>SET
DONOR_HYDROGENS      STATIC     ATOMS    <user>   **** ""
4 35 36 37 38
ATOM$RED        STATIC     ATOMS    COLORGROUP SYSTEM
4 35 36 37 38
@<TRIPOS>COMMENT
> <Gold.Version>
2022.2.0

> <Gold.Id.Protein>
1qkm|1qkm_protein|mol2

> <Gold.Protein.RotatedTorsions>
[  496  491  490  487 ] final -156.70 input  -89.99 | X-H torsion

> <Gold.Protein.ActiveResidues>
 MET295  LEU298  THR299  LEU301  ALA302  GLU305  TRP335  MET336  LEU339  MET340 
 GLY342  LEU343  ARG346  PHE356  ILE373  ILE376  PHE377  LEU380  LYS471  GLY472 
 MET473  HIS475  LEU476  LEU477  ASN478  MET479  VAL484  VAL487 

> <Gold.Protein.RotatedAtoms>
   37.2623   33.8150   40.7363 H   0  0  0  0  0  0  0  0  0  0  0  0  # atno 496  bound_to 491 

> <Gold.Score>
     Score     S(PLP)   S(hbond)     S(cho)   S(metal)  DE(clash)   DE(tors)     intcor
     56.38     -51.25       2.00       0.00       0.00       0.73       0.32       0.50

> <Gold.PLP.Fitness>
56.3793

> <Gold.PLP.PLP>
-51.2524

> <Gold.PLP.part.hbond>
-2.2701

> <Gold.PLP.part.metal>
0.0000

> <Gold.PLP.part.buried>
-6.0518

> <Gold.PLP.part.nonpolar>
-42.9246

> <Gold.PLP.part.repulsive>
0.1025

> <Gold.PLP.ligand.clash>
0.7266

> <Gold.PLP.ligand.torsion>
0.3234

> <Gold.PLP.Chemscore.Hbond>
2.0000

> <Gold.PLP.Chemscore.CHOScore>
0.0000

> <Gold.PLP.Chemscore.Metal>
0.0000

> <Gold.Chemscore.Hbonds>
donor molecule, donor type, donor heavy atom, donor atom, acceptor molecule, acceptor atom, score
      L1  H    15    36       P1   582  1.00
      L1  H    17    37       P1   582  1.00

> <Gold.PLP.Chemscore.Internal.Correction>
0.5003

