#       Name:                EN300-7425367_i001
#       Creating user name   aseyller
#       Creation time:       Fri Apr 21 16:41:51 2023


#       File generated by GOLD software.
#

@<TRIPOS>MOLECULE
EN300-7425367_i001|aminophenols|mol2|96|dock13
    38    38     1
SMALL
USER_CHARGES


@<TRIPOS>ATOM
      1 C1          26.2211  37.4004  41.5907 C.3            1 <1>                0.0000
      2 C2          26.7907  36.7827  40.3122 C.3            1 <1>                0.0000
      3 C3          26.2814  35.3471  40.1685 C.3            1 <1>                0.0000
      4 C4          26.3416  37.6065  39.1036 C.3            1 <1>                0.0000
      5 O5          28.2411  36.7770  40.3820 O.3            1 <1>                0.0000
      6 C6          28.8939  36.0311  39.4708 C.2            1 <1>                0.0000
      7 O7          28.4093  35.8543  38.3706 O.2            1 <1>                0.0000
      8 N8          30.0850  35.4808  39.7789 N.am           1 <1>                0.0000
      9 C9          30.7953  34.6692  38.7875 C.3            1 <1>                0.0000
     10 C10         32.2228  35.1955  38.6260 C.3            1 <1>                0.0000
     11 C11         32.3054  36.0522  37.3888 C.ar           1 <1>                0.0000
     12 C12         31.2641  36.9036  37.0689 C.ar           1 <1>                0.0000
     13 C13         31.3341  37.6918  35.9348 C.ar           1 <1>                0.0000
     14 C14         32.4493  37.6302  35.1159 C.ar           1 <1>                0.0000
     15 O15         32.5196  38.4052  34.0004 O.3            1 <1>                0.0000
     16 C16         33.4992  36.7728  35.4378 C.ar           1 <1>                0.0000
     17 N17         34.6287  36.7064  34.6138 N.pl3          1 <1>                0.0000
     18 C18         33.4243  35.9890  36.5799 C.ar           1 <1>                0.0000
     19 H19         26.5410  36.8135  42.4517 H              1 <1>                0.0000
     20 H20         26.5839  38.4232  41.6930 H              1 <1>                0.0000
     21 H21         25.1323  37.4047  41.5383 H              1 <1>                0.0000
     22 H22         25.1927  35.3514  40.1161 H              1 <1>                0.0000
     23 H23         26.6873  34.9070  39.2577 H              1 <1>                0.0000
     24 H24         26.6014  34.7602  41.0296 H              1 <1>                0.0000
     25 H25         26.7044  38.6292  39.2060 H              1 <1>                0.0000
     26 H26         26.7475  37.1664  38.1928 H              1 <1>                0.0000
     27 H27         25.2528  37.6108  39.0512 H              1 <1>                0.0000
     28 H28         30.8260  33.6321  39.1216 H              1 <1>                0.0000
     29 H29         30.2761  34.7276  37.8309 H              1 <1>                0.0000
     30 H30         32.4916  35.7907  39.4986 H              1 <1>                0.0000
     31 H31         32.9113  34.3557  38.5329 H              1 <1>                0.0000
     32 H32         30.3938  36.9531  37.7063 H              1 <1>                0.0000
     33 H33         30.5187  38.3554  35.6874 H              1 <1>                0.0000
     34 H34         34.2365  35.3232  36.8323 H              1 <1>                0.0000
     35 H35         30.4718  35.6219  40.6572 H              1 <1>                0.0000
     36 H36         33.4169  38.5243  33.6601 H              1 <1>                0.0000
     37 H37         34.6813  37.2577  33.8175 H              1 <1>                0.0000
     38 H38         35.3590  36.1090  34.8391 H              1 <1>                0.0000
@<TRIPOS>BOND
    1    1    2 1     
    2    1   19 1     
    3    1   20 1     
    4    1   21 1     
    5    2    3 1     
    6    2    4 1     
    7    2    5 1     
    8    3   22 1     
    9    3   23 1     
   10    3   24 1     
   11    4   25 1     
   12    4   26 1     
   13    4   27 1     
   14    5    6 1     
   15    6    7 2     
   16    6    8 am    
   17    8    9 1     
   18    8   35 1     
   19    9   10 1     
   20    9   28 1     
   21    9   29 1     
   22   10   11 1     
   23   10   30 1     
   24   10   31 1     
   25   11   12 ar    
   26   11   18 ar    
   27   12   13 ar    
   28   12   32 1     
   29   13   14 ar    
   30   13   33 1     
   31   14   15 1     
   32   14   16 ar    
   33   15   36 1     
   34   16   17 1     
   35   16   18 ar    
   36   17   37 1     
   37   17   38 1     
   38   18   34 1     
@<TRIPOS>SUBSTRUCTURE
      1 ****           1
@<TRIPOS>SET
DONOR_HYDROGENS      STATIC     ATOMS    <user>   **** ""
4 35 36 37 38
ATOM$RED        STATIC     ATOMS    COLORGROUP SYSTEM
4 35 36 37 38
@<TRIPOS>COMMENT
> <Gold.Version>
2022.2.0

> <Gold.Id.Protein>
1qkm|1qkm_protein|mol2

> <Gold.Protein.RotatedTorsions>
[  496  491  490  487 ] final  -30.06 input  -89.99 | X-H torsion

> <Gold.Protein.ActiveResidues>
 MET295  LEU298  THR299  LEU301  ALA302  GLU305  TRP335  MET336  LEU339  MET340 
 GLY342  LEU343  ARG346  PHE356  ILE373  ILE376  PHE377  LEU380  LYS471  GLY472 
 MET473  HIS475  LEU476  LEU477  ASN478  MET479  VAL484  VAL487 

> <Gold.Protein.RotatedAtoms>
   36.3151   34.5716   41.9073 H   0  0  0  0  0  0  0  0  0  0  0  0  # atno 496  bound_to 491 

> <Gold.Score>
     Score     S(PLP)   S(hbond)     S(cho)   S(metal)  DE(clash)   DE(tors)     intcor
     51.86     -46.36       2.42       0.00       0.00       0.00       1.11       0.44

> <Gold.PLP.Fitness>
51.8589

> <Gold.PLP.PLP>
-46.3635

> <Gold.PLP.part.hbond>
-2.5949

> <Gold.PLP.part.metal>
0.0000

> <Gold.PLP.part.buried>
-4.1761

> <Gold.PLP.part.nonpolar>
-40.9442

> <Gold.PLP.part.repulsive>
0.2171

> <Gold.PLP.ligand.clash>
0.0000

> <Gold.PLP.ligand.torsion>
1.1055

> <Gold.PLP.Chemscore.Hbond>
2.4209

> <Gold.PLP.Chemscore.CHOScore>
0.0000

> <Gold.PLP.Chemscore.Metal>
0.0000

> <Gold.Chemscore.Hbonds>
donor molecule, donor type, donor heavy atom, donor atom, acceptor molecule, acceptor atom, score
      L1  H     8    35       P1   470  1.00
      L1  H    15    36       P1  3229  0.42
      L1  H    17    37       P1  3229  1.00

> <Gold.PLP.Chemscore.Internal.Correction>
0.4437

