#       Name:                EN300-7425367_i001
#       Creating user name   aseyller
#       Creation time:       Fri Apr 21 16:42:00 2023


#       File generated by GOLD software.
#

@<TRIPOS>MOLECULE
EN300-7425367_i001|aminophenols|mol2|96|dock18
    38    38     1
SMALL
USER_CHARGES


@<TRIPOS>ATOM
      1 C1          31.6767  37.3121  36.5513 C.3            1 <1>                0.0000
      2 C2          31.5866  38.3938  35.4732 C.3            1 <1>                0.0000
      3 C3          32.2906  39.6611  35.9621 C.3            1 <1>                0.0000
      4 C4          32.2623  37.8963  34.1938 C.3            1 <1>                0.0000
      5 O5          30.1915  38.6898  35.2000 O.3            1 <1>                0.0000
      6 C6          29.4064  38.9649  36.2586 C.2            1 <1>                0.0000
      7 O7          29.9021  39.3510  37.2986 O.2            1 <1>                0.0000
      8 N8          28.0706  38.8121  36.1647 N.am           1 <1>                0.0000
      9 C9          27.2164  39.1114  37.3166 C.3            1 <1>                0.0000
     10 C10         26.3903  37.8742  37.6740 C.3            1 <1>                0.0000
     11 C11         26.9516  37.2382  38.9197 C.ar           1 <1>                0.0000
     12 C12         26.1466  37.0705  40.0311 C.ar           1 <1>                0.0000
     13 C13         26.6562  36.4878  41.1770 C.ar           1 <1>                0.0000
     14 C14         27.9761  36.0700  41.2137 C.ar           1 <1>                0.0000
     15 O15         28.4785  35.4964  42.3400 O.3            1 <1>                0.0000
     16 C16         28.7880  36.2383  40.0941 C.ar           1 <1>                0.0000
     17 N17         30.1226  35.8179  40.1255 N.pl3          1 <1>                0.0000
     18 C18         28.2684  36.8188  38.9462 C.ar           1 <1>                0.0000
     19 H19         31.1954  37.6665  37.4628 H              1 <1>                0.0000
     20 H20         31.1752  36.4092  36.2030 H              1 <1>                0.0000
     21 H21         32.7240  37.0899  36.7564 H              1 <1>                0.0000
     22 H22         33.3378  39.4389  36.1671 H              1 <1>                0.0000
     23 H23         32.2263  40.4318  35.1939 H              1 <1>                0.0000
     24 H24         31.8092  40.0156  36.8736 H              1 <1>                0.0000
     25 H25         31.7608  36.9934  33.8455 H              1 <1>                0.0000
     26 H26         32.1980  38.6670  33.4256 H              1 <1>                0.0000
     27 H27         33.3096  37.6741  34.3988 H              1 <1>                0.0000
     28 H28         27.8381  39.3914  38.1670 H              1 <1>                0.0000
     29 H29         26.5476  39.9357  37.0685 H              1 <1>                0.0000
     30 H30         25.3553  38.1670  37.8503 H              1 <1>                0.0000
     31 H31         26.4309  37.1602  36.8516 H              1 <1>                0.0000
     32 H32         25.1171  37.3955  40.0043 H              1 <1>                0.0000
     33 H33         26.0249  36.3589  42.0437 H              1 <1>                0.0000
     34 H34         28.8950  36.9507  38.0765 H              1 <1>                0.0000
     35 H35         27.6749  38.5038  35.3345 H              1 <1>                0.0000
     36 H36         27.8294  34.9891  42.8463 H              1 <1>                0.0000
     37 H37         30.4836  35.4089  40.9275 H              1 <1>                0.0000
     38 H38         30.6867  35.9357  39.3452 H              1 <1>                0.0000
@<TRIPOS>BOND
    1    1    2 1     
    2    1   19 1     
    3    1   20 1     
    4    1   21 1     
    5    2    3 1     
    6    2    4 1     
    7    2    5 1     
    8    3   22 1     
    9    3   23 1     
   10    3   24 1     
   11    4   25 1     
   12    4   26 1     
   13    4   27 1     
   14    5    6 1     
   15    6    7 2     
   16    6    8 am    
   17    8    9 1     
   18    8   35 1     
   19    9   10 1     
   20    9   28 1     
   21    9   29 1     
   22   10   11 1     
   23   10   30 1     
   24   10   31 1     
   25   11   12 ar    
   26   11   18 ar    
   27   12   13 ar    
   28   12   32 1     
   29   13   14 ar    
   30   13   33 1     
   31   14   15 1     
   32   14   16 ar    
   33   15   36 1     
   34   16   17 1     
   35   16   18 ar    
   36   17   37 1     
   37   17   38 1     
   38   18   34 1     
@<TRIPOS>SUBSTRUCTURE
      1 ****           1
@<TRIPOS>SET
DONOR_HYDROGENS      STATIC     ATOMS    <user>   **** ""
4 35 36 37 38
ATOM$RED        STATIC     ATOMS    COLORGROUP SYSTEM
4 35 36 37 38
@<TRIPOS>COMMENT
> <Gold.Version>
2022.2.0

> <Gold.Id.Protein>
1qkm|1qkm_protein|mol2

> <Gold.Protein.RotatedTorsions>
[  496  491  490  487 ] final  110.25 input  -89.99 | X-H torsion

> <Gold.Protein.ActiveResidues>
 MET295  LEU298  THR299  LEU301  ALA302  GLU305  TRP335  MET336  LEU339  MET340 
 GLY342  LEU343  ARG346  PHE356  ILE373  ILE376  PHE377  LEU380  LYS471  GLY472 
 MET473  HIS475  LEU476  LEU477  ASN478  MET479  VAL484  VAL487 

> <Gold.Protein.RotatedAtoms>
   37.0014   32.9422   41.7581 H   0  0  0  0  0  0  0  0  0  0  0  0  # atno 496  bound_to 491 

> <Gold.Score>
     Score     S(PLP)   S(hbond)     S(cho)   S(metal)  DE(clash)   DE(tors)     intcor
     50.23     -45.19       2.00       0.00       0.00       0.00       0.70       0.44

> <Gold.PLP.Fitness>
50.2278

> <Gold.PLP.PLP>
-45.1903

> <Gold.PLP.part.hbond>
-2.7623

> <Gold.PLP.part.metal>
0.0000

> <Gold.PLP.part.buried>
-1.5614

> <Gold.PLP.part.nonpolar>
-40.5594

> <Gold.PLP.part.repulsive>
0.0731

> <Gold.PLP.ligand.clash>
0.0000

> <Gold.PLP.ligand.torsion>
0.7031

> <Gold.PLP.Chemscore.Hbond>
2.0000

> <Gold.PLP.Chemscore.CHOScore>
0.0000

> <Gold.PLP.Chemscore.Metal>
0.0000

> <Gold.Chemscore.Hbonds>
donor molecule, donor type, donor heavy atom, donor atom, acceptor molecule, acceptor atom, score
      L1  H    15    36       P1   582  1.00
      L1  H    17    37       P1   470  1.00

> <Gold.PLP.Chemscore.Internal.Correction>
0.4437

