#       Name:                EN300-7425367_i001
#       Creating user name   aseyller
#       Creation time:       Fri Apr 21 16:41:49 2023


#       File generated by GOLD software.
#

@<TRIPOS>MOLECULE
EN300-7425367_i001|aminophenols|mol2|96|dock12
    38    38     1
SMALL
USER_CHARGES


@<TRIPOS>ATOM
      1 C1          34.1319  36.9439  34.9742 C.3            1 <1>                0.0000
      2 C2          32.7503  37.0046  35.6287 C.3            1 <1>                0.0000
      3 C3          32.6914  38.1965  36.5860 C.3            1 <1>                0.0000
      4 C4          31.6802  37.1658  34.5471 C.3            1 <1>                0.0000
      5 O5          32.5105  35.7779  36.3677 O.3            1 <1>                0.0000
      6 C6          31.4229  35.7447  37.1607 C.2            1 <1>                0.0000
      7 O7          30.4640  36.4463  36.9064 O.2            1 <1>                0.0000
      8 N8          31.3979  34.9333  38.2366 N.am           1 <1>                0.0000
      9 C9          30.2146  34.8973  39.0994 C.3            1 <1>                0.0000
     10 C10         29.9458  36.2972  39.6552 C.3            1 <1>                0.0000
     11 C11         28.5440  36.3587  40.2051 C.ar           1 <1>                0.0000
     12 C12         28.2986  35.9798  41.5119 C.ar           1 <1>                0.0000
     13 C13         27.0144  36.0338  42.0218 C.ar           1 <1>                0.0000
     14 C14         25.9695  36.4687  41.2234 C.ar           1 <1>                0.0000
     15 O15         24.7060  36.5227  41.7238 O.3            1 <1>                0.0000
     16 C16         26.2160  36.8512  39.9066 C.ar           1 <1>                0.0000
     17 N17         25.1640  37.2914  39.0952 N.pl3          1 <1>                0.0000
     18 C18         27.5078  36.7993  39.4035 C.ar           1 <1>                0.0000
     19 H19         34.8942  36.8290  35.7448 H              1 <1>                0.0000
     20 H20         34.1739  36.0947  34.2921 H              1 <1>                0.0000
     21 H21         34.3119  37.8648  34.4195 H              1 <1>                0.0000
     22 H22         32.8714  39.1173  36.0313 H              1 <1>                0.0000
     23 H23         31.7071  38.2398  37.0523 H              1 <1>                0.0000
     24 H24         33.4538  38.0816  37.3567 H              1 <1>                0.0000
     25 H25         31.7222  36.3167  33.8650 H              1 <1>                0.0000
     26 H26         30.6959  37.2090  35.0133 H              1 <1>                0.0000
     27 H27         31.8603  38.0867  33.9923 H              1 <1>                0.0000
     28 H28         29.3529  34.5646  38.5206 H              1 <1>                0.0000
     29 H29         30.3872  34.2059  39.9242 H              1 <1>                0.0000
     30 H30         30.6581  36.5151  40.4509 H              1 <1>                0.0000
     31 H31         30.0559  37.0320  38.8578 H              1 <1>                0.0000
     32 H32         29.1120  35.6405  42.1359 H              1 <1>                0.0000
     33 H33         26.8259  35.7364  43.0428 H              1 <1>                0.0000
     34 H34         27.7023  37.0951  38.3831 H              1 <1>                0.0000
     35 H35         32.1635  34.3734  38.4396 H              1 <1>                0.0000
     36 H36         24.0319  36.1658  41.1295 H              1 <1>                0.0000
     37 H37         24.2618  37.3306  39.4494 H              1 <1>                0.0000
     38 H38         25.3371  37.5575  38.1785 H              1 <1>                0.0000
@<TRIPOS>BOND
    1    1    2 1     
    2    1   19 1     
    3    1   20 1     
    4    1   21 1     
    5    2    3 1     
    6    2    4 1     
    7    2    5 1     
    8    3   22 1     
    9    3   23 1     
   10    3   24 1     
   11    4   25 1     
   12    4   26 1     
   13    4   27 1     
   14    5    6 1     
   15    6    7 2     
   16    6    8 am    
   17    8    9 1     
   18    8   35 1     
   19    9   10 1     
   20    9   28 1     
   21    9   29 1     
   22   10   11 1     
   23   10   30 1     
   24   10   31 1     
   25   11   12 ar    
   26   11   18 ar    
   27   12   13 ar    
   28   12   32 1     
   29   13   14 ar    
   30   13   33 1     
   31   14   15 1     
   32   14   16 ar    
   33   15   36 1     
   34   16   17 1     
   35   16   18 ar    
   36   17   37 1     
   37   17   38 1     
   38   18   34 1     
@<TRIPOS>SUBSTRUCTURE
      1 ****           1
@<TRIPOS>SET
DONOR_HYDROGENS      STATIC     ATOMS    <user>   **** ""
4 35 36 37 38
ATOM$RED        STATIC     ATOMS    COLORGROUP SYSTEM
4 35 36 37 38
@<TRIPOS>COMMENT
> <Gold.Version>
2022.2.0

> <Gold.Id.Protein>
1qkm|1qkm_protein|mol2

> <Gold.Protein.RotatedTorsions>
[  496  491  490  487 ] final  152.03 input  -89.99 | X-H torsion

> <Gold.Protein.ActiveResidues>
 MET295  LEU298  THR299  LEU301  ALA302  GLU305  TRP335  MET336  LEU339  MET340 
 GLY342  LEU343  ARG346  PHE356  ILE373  ILE376  PHE377  LEU380  LYS471  GLY472 
 MET473  HIS475  LEU476  LEU477  ASN478  MET479  VAL484  VAL487 

> <Gold.Protein.RotatedAtoms>
   37.2708   33.1230   41.1689 H   0  0  0  0  0  0  0  0  0  0  0  0  # atno 496  bound_to 491 

> <Gold.Score>
     Score     S(PLP)   S(hbond)     S(cho)   S(metal)  DE(clash)   DE(tors)     intcor
     53.17     -48.64       1.91       0.00       0.00       0.00       0.86       0.50

> <Gold.PLP.Fitness>
53.1678

> <Gold.PLP.PLP>
-48.6401

> <Gold.PLP.part.hbond>
-3.5911

> <Gold.PLP.part.metal>
0.0000

> <Gold.PLP.part.buried>
1.8952

> <Gold.PLP.part.nonpolar>
-48.1512

> <Gold.PLP.part.repulsive>
0.1667

> <Gold.PLP.ligand.clash>
0.0000

> <Gold.PLP.ligand.torsion>
0.8552

> <Gold.PLP.Chemscore.Hbond>
1.9126

> <Gold.PLP.Chemscore.CHOScore>
0.0000

> <Gold.PLP.Chemscore.Metal>
0.0000

> <Gold.Chemscore.Hbonds>
donor molecule, donor type, donor heavy atom, donor atom, acceptor molecule, acceptor atom, score
      L1  H    15    36       P1  1131  1.00
      L1  H    17    37       P1  1131  0.31
      P1  H  1258  1270       L1    15  0.60

> <Gold.PLP.Chemscore.Internal.Correction>
0.5003

