#       Name:                EN300-7425367_i001
#       Creating user name   aseyller
#       Creation time:       Fri Apr 21 16:41:56 2023


#       File generated by GOLD software.
#

@<TRIPOS>MOLECULE
EN300-7425367_i001|aminophenols|mol2|96|dock16
    38    38     1
SMALL
USER_CHARGES


@<TRIPOS>ATOM
      1 C1          33.2246  36.1029  37.4066 C.3            1 <1>                0.0000
      2 C2          32.7401  36.8596  36.1683 C.3            1 <1>                0.0000
      3 C3          32.8723  38.3651  36.4065 C.3            1 <1>                0.0000
      4 C4          33.5891  36.4579  34.9605 C.3            1 <1>                0.0000
      5 O5          31.3491  36.5301  35.9132 O.3            1 <1>                0.0000
      6 C6          30.4375  37.0168  36.7762 C.2            1 <1>                0.0000
      7 O7          30.7399  37.2035  37.9382 O.2            1 <1>                0.0000
      8 N8          29.1896  37.2971  36.3513 N.am           1 <1>                0.0000
      9 C9          28.1977  37.8267  37.2903 C.3            1 <1>                0.0000
     10 C10         27.1697  36.7403  37.6127 C.3            1 <1>                0.0000
     11 C11         26.7970  36.8183  39.0709 C.ar           1 <1>                0.0000
     12 C12         25.7236  37.5938  39.4678 C.ar           1 <1>                0.0000
     13 C13         25.3771  37.6695  40.8044 C.ar           1 <1>                0.0000
     14 C14         26.1058  36.9671  41.7499 C.ar           1 <1>                0.0000
     15 O15         25.7659  37.0403  43.0648 O.3            1 <1>                0.0000
     16 C16         27.1875  36.1850  41.3508 C.ar           1 <1>                0.0000
     17 N17         27.9274  35.4730  42.3019 N.pl3          1 <1>                0.0000
     18 C18         27.5259  36.1097  40.0076 C.ar           1 <1>                0.0000
     19 H19         32.6198  36.3891  38.2671 H              1 <1>                0.0000
     20 H20         33.1305  35.0303  37.2370 H              1 <1>                0.0000
     21 H21         34.2688  36.3502  37.5981 H              1 <1>                0.0000
     22 H22         33.9164  38.6124  36.5980 H              1 <1>                0.0000
     23 H23         32.5271  38.9042  35.5242 H              1 <1>                0.0000
     24 H24         32.2674  38.6513  37.2670 H              1 <1>                0.0000
     25 H25         33.4950  35.3853  34.7908 H              1 <1>                0.0000
     26 H26         33.2439  36.9969  34.0783 H              1 <1>                0.0000
     27 H27         34.6333  36.7052  35.1520 H              1 <1>                0.0000
     28 H28         28.6964  38.1388  38.2080 H              1 <1>                0.0000
     29 H29         27.6933  38.6825  36.8418 H              1 <1>                0.0000
     30 H30         26.2796  36.8896  37.0018 H              1 <1>                0.0000
     31 H31         27.5971  35.7607  37.3989 H              1 <1>                0.0000
     32 H32         25.1542  38.1422  38.7321 H              1 <1>                0.0000
     33 H33         24.5384  38.2768  41.1112 H              1 <1>                0.0000
     34 H34         28.3638  35.5043  39.6948 H              1 <1>                0.0000
     35 H35         28.9482  37.1481  35.4237 H              1 <1>                0.0000
     36 H36         25.7215  36.1820  43.5081 H              1 <1>                0.0000
     37 H37         27.6874  35.5237  43.2404 H              1 <1>                0.0000
     38 H38         28.6802  34.9288  42.0226 H              1 <1>                0.0000
@<TRIPOS>BOND
    1    1    2 1     
    2    1   19 1     
    3    1   20 1     
    4    1   21 1     
    5    2    3 1     
    6    2    4 1     
    7    2    5 1     
    8    3   22 1     
    9    3   23 1     
   10    3   24 1     
   11    4   25 1     
   12    4   26 1     
   13    4   27 1     
   14    5    6 1     
   15    6    7 2     
   16    6    8 am    
   17    8    9 1     
   18    8   35 1     
   19    9   10 1     
   20    9   28 1     
   21    9   29 1     
   22   10   11 1     
   23   10   30 1     
   24   10   31 1     
   25   11   12 ar    
   26   11   18 ar    
   27   12   13 ar    
   28   12   32 1     
   29   13   14 ar    
   30   13   33 1     
   31   14   15 1     
   32   14   16 ar    
   33   15   36 1     
   34   16   17 1     
   35   16   18 ar    
   36   17   37 1     
   37   17   38 1     
   38   18   34 1     
@<TRIPOS>SUBSTRUCTURE
      1 ****           1
@<TRIPOS>SET
DONOR_HYDROGENS      STATIC     ATOMS    <user>   **** ""
4 35 36 37 38
ATOM$RED        STATIC     ATOMS    COLORGROUP SYSTEM
4 35 36 37 38
@<TRIPOS>COMMENT
> <Gold.Version>
2022.2.0

> <Gold.Id.Protein>
1qkm|1qkm_protein|mol2

> <Gold.Protein.RotatedTorsions>
[  496  491  490  487 ] final -130.17 input  -89.99 | X-H torsion

> <Gold.Protein.ActiveResidues>
 MET295  LEU298  THR299  LEU301  ALA302  GLU305  TRP335  MET336  LEU339  MET340 
 GLY342  LEU343  ARG346  PHE356  ILE373  ILE376  PHE377  LEU380  LYS471  GLY472 
 MET473  HIS475  LEU476  LEU477  ASN478  MET479  VAL484  VAL487 

> <Gold.Protein.RotatedAtoms>
   37.1060   34.2184   40.7493 H   0  0  0  0  0  0  0  0  0  0  0  0  # atno 496  bound_to 491 

> <Gold.Score>
     Score     S(PLP)   S(hbond)     S(cho)   S(metal)  DE(clash)   DE(tors)     intcor
     54.23     -52.09       1.35       0.00       0.00       0.00       1.18       0.44

> <Gold.PLP.Fitness>
54.2327

> <Gold.PLP.PLP>
-52.0905

> <Gold.PLP.part.hbond>
-4.0000

> <Gold.PLP.part.metal>
0.0000

> <Gold.PLP.part.buried>
-3.6308

> <Gold.PLP.part.nonpolar>
-46.2352

> <Gold.PLP.part.repulsive>
0.1350

> <Gold.PLP.ligand.clash>
0.0000

> <Gold.PLP.ligand.torsion>
1.1788

> <Gold.PLP.Chemscore.Hbond>
1.3520

> <Gold.PLP.Chemscore.CHOScore>
0.0000

> <Gold.PLP.Chemscore.Metal>
0.0000

> <Gold.Chemscore.Hbonds>
donor molecule, donor type, donor heavy atom, donor atom, acceptor molecule, acceptor atom, score
      L1  H    15    36       P1   582  1.00
      L1  H    17    37       P1   582  0.35

> <Gold.PLP.Chemscore.Internal.Correction>
0.4437

