#       Name:                EN300-7425367_i001
#       Creating user name   aseyller
#       Creation time:       Fri Apr 21 16:41:43 2023


#       File generated by GOLD software.
#

@<TRIPOS>MOLECULE
EN300-7425367_i001|aminophenols|mol2|96|dock9
    38    38     1
SMALL
USER_CHARGES


@<TRIPOS>ATOM
      1 C1          33.2747  35.7998  35.8089 C.3            1 <1>                0.0000
      2 C2          32.9716  35.9889  37.2966 C.3            1 <1>                0.0000
      3 C3          31.9926  34.9078  37.7590 C.3            1 <1>                0.0000
      4 C4          34.2694  35.8788  38.0995 C.3            1 <1>                0.0000
      5 O5          32.3815  37.2987  37.5077 O.3            1 <1>                0.0000
      6 C6          31.1304  37.4869  37.0471 C.2            1 <1>                0.0000
      7 O7          30.7092  36.8024  36.1357 O.2            1 <1>                0.0000
      8 N8          30.3453  38.4344  37.5968 N.am           1 <1>                0.0000
      9 C9          28.9841  38.6391  37.0957 C.3            1 <1>                0.0000
     10 C10         28.2091  37.3221  37.1718 C.3            1 <1>                0.0000
     11 C11         27.7305  37.1018  38.5837 C.ar           1 <1>                0.0000
     12 C12         26.3953  37.2799  38.8949 C.ar           1 <1>                0.0000
     13 C13         25.9504  37.0795  40.1889 C.ar           1 <1>                0.0000
     14 C14         26.8428  36.6991  41.1773 C.ar           1 <1>                0.0000
     15 O15         26.4065  36.5012  42.4503 O.3            1 <1>                0.0000
     16 C16         28.1885  36.5190  40.8645 C.ar           1 <1>                0.0000
     17 N17         29.0948  36.1345  41.8594 N.pl3          1 <1>                0.0000
     18 C18         28.6266  36.7167  39.5632 C.ar           1 <1>                0.0000
     19 H19         32.3502  35.8782  35.2369 H              1 <1>                0.0000
     20 H20         33.9722  36.5699  35.4795 H              1 <1>                0.0000
     21 H21         33.7177  34.8165  35.6505 H              1 <1>                0.0000
     22 H22         32.4356  33.9247  37.6006 H              1 <1>                0.0000
     23 H23         31.7767  35.0426  38.8189 H              1 <1>                0.0000
     24 H24         31.0680  34.9863  37.1870 H              1 <1>                0.0000
     25 H25         34.9669  36.6489  37.7701 H              1 <1>                0.0000
     26 H26         34.0534  36.0135  39.1594 H              1 <1>                0.0000
     27 H27         34.7124  34.8955  37.9410 H              1 <1>                0.0000
     28 H28         28.4823  39.3917  37.7040 H              1 <1>                0.0000
     29 H29         29.0251  38.9772  36.0602 H              1 <1>                0.0000
     30 H30         27.3518  37.3657  36.5002 H              1 <1>                0.0000
     31 H31         28.8605  36.4997  36.8765 H              1 <1>                0.0000
     32 H32         25.6979  37.5765  38.1256 H              1 <1>                0.0000
     33 H33         24.9068  37.2202  40.4288 H              1 <1>                0.0000
     34 H34         29.6690  36.5779  39.3173 H              1 <1>                0.0000
     35 H35         30.6816  38.9808  38.3243 H              1 <1>                0.0000
     36 H36         26.4980  35.5899  42.7603 H              1 <1>                0.0000
     37 H37         28.7864  35.9931  42.7681 H              1 <1>                0.0000
     38 H38         30.0314  36.0095  41.6401 H              1 <1>                0.0000
@<TRIPOS>BOND
    1    1    2 1     
    2    1   19 1     
    3    1   20 1     
    4    1   21 1     
    5    2    3 1     
    6    2    4 1     
    7    2    5 1     
    8    3   22 1     
    9    3   23 1     
   10    3   24 1     
   11    4   25 1     
   12    4   26 1     
   13    4   27 1     
   14    5    6 1     
   15    6    7 2     
   16    6    8 am    
   17    8    9 1     
   18    8   35 1     
   19    9   10 1     
   20    9   28 1     
   21    9   29 1     
   22   10   11 1     
   23   10   30 1     
   24   10   31 1     
   25   11   12 ar    
   26   11   18 ar    
   27   12   13 ar    
   28   12   32 1     
   29   13   14 ar    
   30   13   33 1     
   31   14   15 1     
   32   14   16 ar    
   33   15   36 1     
   34   16   17 1     
   35   16   18 ar    
   36   17   37 1     
   37   17   38 1     
   38   18   34 1     
@<TRIPOS>SUBSTRUCTURE
      1 ****           1
@<TRIPOS>SET
DONOR_HYDROGENS      STATIC     ATOMS    <user>   **** ""
4 35 36 37 38
ATOM$RED        STATIC     ATOMS    COLORGROUP SYSTEM
4 35 36 37 38
@<TRIPOS>COMMENT
> <Gold.Version>
2022.2.0

> <Gold.Id.Protein>
1qkm|1qkm_protein|mol2

> <Gold.Protein.RotatedTorsions>
[  496  491  490  487 ] final  -16.34 input  -89.99 | X-H torsion

> <Gold.Protein.ActiveResidues>
 MET295  LEU298  THR299  LEU301  ALA302  GLU305  TRP335  MET336  LEU339  MET340 
 GLY342  LEU343  ARG346  PHE356  ILE373  ILE376  PHE377  LEU380  LYS471  GLY472 
 MET473  HIS475  LEU476  LEU477  ASN478  MET479  VAL484  VAL487 

> <Gold.Protein.RotatedAtoms>
   36.2722   34.4279   42.0755 H   0  0  0  0  0  0  0  0  0  0  0  0  # atno 496  bound_to 491 

> <Gold.Score>
     Score     S(PLP)   S(hbond)     S(cho)   S(metal)  DE(clash)   DE(tors)     intcor
     55.54     -50.87       1.86       0.00       0.00       0.00       0.70       0.50

> <Gold.PLP.Fitness>
55.5393

> <Gold.PLP.PLP>
-50.8661

> <Gold.PLP.part.hbond>
-1.5029

> <Gold.PLP.part.metal>
0.0000

> <Gold.PLP.part.buried>
-5.3939

> <Gold.PLP.part.nonpolar>
-44.4895

> <Gold.PLP.part.repulsive>
0.0944

> <Gold.PLP.ligand.clash>
0.0000

> <Gold.PLP.ligand.torsion>
0.6982

> <Gold.PLP.Chemscore.Hbond>
1.8564

> <Gold.PLP.Chemscore.CHOScore>
0.0000

> <Gold.PLP.Chemscore.Metal>
0.0000

> <Gold.Chemscore.Hbonds>
donor molecule, donor type, donor heavy atom, donor atom, acceptor molecule, acceptor atom, score
      L1  H    15    36       P1   582  0.90
      L1  H    17    38       P1   470  0.95

> <Gold.PLP.Chemscore.Internal.Correction>
0.5003

