#       Name:                EN300-7425367_i001
#       Creating user name   aseyller
#       Creation time:       Fri Apr 21 16:42:05 2023


#       File generated by GOLD software.
#

@<TRIPOS>MOLECULE
EN300-7425367_i001|aminophenols|mol2|96|dock20
    38    38     1
SMALL
USER_CHARGES


@<TRIPOS>ATOM
      1 C1          30.7493  38.7539  34.4059 C.3            1 <1>                0.0000
      2 C2          30.8231  39.2613  35.8473 C.3            1 <1>                0.0000
      3 C3          31.4547  40.6547  35.8659 C.3            1 <1>                0.0000
      4 C4          29.4125  39.3330  36.4356 C.3            1 <1>                0.0000
      5 O5          31.6322  38.3525  36.6396 O.3            1 <1>                0.0000
      6 C6          31.0953  37.1530  36.9323 C.2            1 <1>                0.0000
      7 O7          30.2044  36.7011  36.2405 O.2            1 <1>                0.0000
      8 N8          31.5460  36.4536  37.9925 N.am           1 <1>                0.0000
      9 C9          30.9618  35.1485  38.3110 C.3            1 <1>                0.0000
     10 C10         30.3582  35.1891  39.7163 C.3            1 <1>                0.0000
     11 C11         28.9617  35.7515  39.6471 C.ar           1 <1>                0.0000
     12 C12         28.5520  36.4437  38.5227 C.ar           1 <1>                0.0000
     13 C13         27.2719  36.9623  38.4537 C.ar           1 <1>                0.0000
     14 C14         26.3960  36.7888  39.5124 C.ar           1 <1>                0.0000
     15 O15         25.1365  37.2979  39.4457 O.3            1 <1>                0.0000
     16 C16         26.8079  36.0909  40.6457 C.ar           1 <1>                0.0000
     17 N17         25.9269  35.9125  41.7186 N.pl3          1 <1>                0.0000
     18 C18         28.0918  35.5690  40.7057 C.ar           1 <1>                0.0000
     19 H19         31.7542  38.7029  33.9867 H              1 <1>                0.0000
     20 H20         30.2993  37.7613  34.3926 H              1 <1>                0.0000
     21 H21         30.1418  39.4362  33.8111 H              1 <1>                0.0000
     22 H22         30.8473  41.3369  35.2712 H              1 <1>                0.0000
     23 H23         31.5072  41.0162  36.8929 H              1 <1>                0.0000
     24 H24         32.4597  40.6037  35.4467 H              1 <1>                0.0000
     25 H25         28.9624  38.3404  36.4224 H              1 <1>                0.0000
     26 H26         29.4650  39.6945  37.4626 H              1 <1>                0.0000
     27 H27         28.8050  40.0153  35.8409 H              1 <1>                0.0000
     28 H28         30.1815  34.9133  37.5871 H              1 <1>                0.0000
     29 H29         31.7373  34.3836  38.2706 H              1 <1>                0.0000
     30 H30         30.3235  34.1798  40.1262 H              1 <1>                0.0000
     31 H31         30.9728  35.8208  40.3575 H              1 <1>                0.0000
     32 H32         29.2335  36.5800  37.6962 H              1 <1>                0.0000
     33 H33         26.9552  37.5032  37.5742 H              1 <1>                0.0000
     34 H34         28.4143  35.0275  41.5827 H              1 <1>                0.0000
     35 H35         32.2571  36.8144  38.5448 H              1 <1>                0.0000
     36 H36         24.4604  36.7275  39.8363 H              1 <1>                0.0000
     37 H37         25.0283  36.2749  41.6738 H              1 <1>                0.0000
     38 H38         26.2151  35.4264  42.5071 H              1 <1>                0.0000
@<TRIPOS>BOND
    1    1    2 1     
    2    1   19 1     
    3    1   20 1     
    4    1   21 1     
    5    2    3 1     
    6    2    4 1     
    7    2    5 1     
    8    3   22 1     
    9    3   23 1     
   10    3   24 1     
   11    4   25 1     
   12    4   26 1     
   13    4   27 1     
   14    5    6 1     
   15    6    7 2     
   16    6    8 am    
   17    8    9 1     
   18    8   35 1     
   19    9   10 1     
   20    9   28 1     
   21    9   29 1     
   22   10   11 1     
   23   10   30 1     
   24   10   31 1     
   25   11   12 ar    
   26   11   18 ar    
   27   12   13 ar    
   28   12   32 1     
   29   13   14 ar    
   30   13   33 1     
   31   14   15 1     
   32   14   16 ar    
   33   15   36 1     
   34   16   17 1     
   35   16   18 ar    
   36   17   37 1     
   37   17   38 1     
   38   18   34 1     
@<TRIPOS>SUBSTRUCTURE
      1 ****           1
@<TRIPOS>SET
DONOR_HYDROGENS      STATIC     ATOMS    <user>   **** ""
4 35 36 37 38
ATOM$RED        STATIC     ATOMS    COLORGROUP SYSTEM
4 35 36 37 38
@<TRIPOS>COMMENT
> <Gold.Version>
2022.2.0

> <Gold.Id.Protein>
1qkm|1qkm_protein|mol2

> <Gold.Protein.RotatedTorsions>
[  496  491  490  487 ] final   18.84 input  -89.99 | X-H torsion

> <Gold.Protein.ActiveResidues>
 MET295  LEU298  THR299  LEU301  ALA302  GLU305  TRP335  MET336  LEU339  MET340 
 GLY342  LEU343  ARG346  PHE356  ILE373  ILE376  PHE377  LEU380  LYS471  GLY472 
 MET473  HIS475  LEU476  LEU477  ASN478  MET479  VAL484  VAL487 

> <Gold.Protein.RotatedAtoms>
   36.2982   33.9301   42.3519 H   0  0  0  0  0  0  0  0  0  0  0  0  # atno 496  bound_to 491 

> <Gold.Score>
     Score     S(PLP)   S(hbond)     S(cho)   S(metal)  DE(clash)   DE(tors)     intcor
     48.01     -44.09       1.75       0.00       0.00       0.22       0.78       0.44

> <Gold.PLP.Fitness>
48.0122

> <Gold.PLP.PLP>
-44.0865

> <Gold.PLP.part.hbond>
-1.8025

> <Gold.PLP.part.metal>
0.0000

> <Gold.PLP.part.buried>
-1.2774

> <Gold.PLP.part.nonpolar>
-41.4714

> <Gold.PLP.part.repulsive>
0.0907

> <Gold.PLP.ligand.clash>
0.2178

> <Gold.PLP.ligand.torsion>
0.7817

> <Gold.PLP.Chemscore.Hbond>
1.7544

> <Gold.PLP.Chemscore.CHOScore>
0.0000

> <Gold.PLP.Chemscore.Metal>
0.0000

> <Gold.Chemscore.Hbonds>
donor molecule, donor type, donor heavy atom, donor atom, acceptor molecule, acceptor atom, score
      L1  H    15    36       P1  1131  0.75
      L1  H    17    38       P1   582  1.00

> <Gold.PLP.Chemscore.Internal.Correction>
0.4437

