#       Name:                EN300-7425367_i001
#       Creating user name   aseyller
#       Creation time:       Fri Apr 21 16:41:32 2023


#       File generated by GOLD software.
#

@<TRIPOS>MOLECULE
EN300-7425367_i001|aminophenols|mol2|96|dock3
    38    38     1
SMALL
USER_CHARGES


@<TRIPOS>ATOM
      1 C1          31.9763  34.3735  37.8766 C.3            1 <1>                0.0000
      2 C2          32.5413  35.7243  37.4329 C.3            1 <1>                0.0000
      3 C3          32.8929  36.5598  38.6654 C.3            1 <1>                0.0000
      4 C4          33.8004  35.4994  36.5931 C.3            1 <1>                0.0000
      5 O5          31.5491  36.4267  36.6389 O.3            1 <1>                0.0000
      6 C6          30.4336  36.8326  37.2742 C.2            1 <1>                0.0000
      7 O7          30.1574  36.3785  38.3669 O.2            1 <1>                0.0000
      8 N8          29.6234  37.7427  36.6982 N.am           1 <1>                0.0000
      9 C9          28.4097  38.1844  37.3895 C.3            1 <1>                0.0000
     10 C10         27.4175  37.0225  37.4705 C.3            1 <1>                0.0000
     11 C11         26.8647  36.9306  38.8695 C.ar           1 <1>                0.0000
     12 C12         25.7331  37.6471  39.2123 C.ar           1 <1>                0.0000
     13 C13         25.2215  37.5670  40.4946 C.ar           1 <1>                0.0000
     14 C14         25.8424  36.7672  41.4396 C.ar           1 <1>                0.0000
     15 O15         25.3401  36.6872  42.7009 O.3            1 <1>                0.0000
     16 C16         26.9826  36.0445  41.0949 C.ar           1 <1>                0.0000
     17 N17         27.6142  35.2347  42.0458 N.pl3          1 <1>                0.0000
     18 C18         27.4870  36.1257  39.8051 C.ar           1 <1>                0.0000
     19 H19         31.0793  34.5337  38.4749 H              1 <1>                0.0000
     20 H20         31.7258  33.7782  36.9986 H              1 <1>                0.0000
     21 H21         32.7212  33.8462  38.4727 H              1 <1>                0.0000
     22 H22         33.6377  36.0325  39.2614 H              1 <1>                0.0000
     23 H23         33.2955  37.5221  38.3492 H              1 <1>                0.0000
     24 H24         31.9959  36.7200  39.2637 H              1 <1>                0.0000
     25 H25         33.5500  34.9041  35.7151 H              1 <1>                0.0000
     26 H26         34.2029  36.4617  36.2769 H              1 <1>                0.0000
     27 H27         34.5453  34.9720  37.1892 H              1 <1>                0.0000
     28 H28         28.6649  38.5150  38.3963 H              1 <1>                0.0000
     29 H29         27.9582  39.0100  36.8394 H              1 <1>                0.0000
     30 H30         26.6016  37.1918  36.7678 H              1 <1>                0.0000
     31 H31         27.9263  36.0920  37.2190 H              1 <1>                0.0000
     32 H32         25.2475  38.2712  38.4768 H              1 <1>                0.0000
     33 H33         24.3378  38.1285  40.7593 H              1 <1>                0.0000
     34 H34         28.3707  35.5668  39.5346 H              1 <1>                0.0000
     35 H35         29.8439  38.1052  35.8259 H              1 <1>                0.0000
     36 H36         25.3895  35.8027  43.0887 H              1 <1>                0.0000
     37 H37         27.2583  35.1761  42.9462 H              1 <1>                0.0000
     38 H38         28.4079  34.7321  41.8044 H              1 <1>                0.0000
@<TRIPOS>BOND
    1    1    2 1     
    2    1   19 1     
    3    1   20 1     
    4    1   21 1     
    5    2    3 1     
    6    2    4 1     
    7    2    5 1     
    8    3   22 1     
    9    3   23 1     
   10    3   24 1     
   11    4   25 1     
   12    4   26 1     
   13    4   27 1     
   14    5    6 1     
   15    6    7 2     
   16    6    8 am    
   17    8    9 1     
   18    8   35 1     
   19    9   10 1     
   20    9   28 1     
   21    9   29 1     
   22   10   11 1     
   23   10   30 1     
   24   10   31 1     
   25   11   12 ar    
   26   11   18 ar    
   27   12   13 ar    
   28   12   32 1     
   29   13   14 ar    
   30   13   33 1     
   31   14   15 1     
   32   14   16 ar    
   33   15   36 1     
   34   16   17 1     
   35   16   18 ar    
   36   17   37 1     
   37   17   38 1     
   38   18   34 1     
@<TRIPOS>SUBSTRUCTURE
      1 ****           1
@<TRIPOS>SET
DONOR_HYDROGENS      STATIC     ATOMS    <user>   **** ""
4 35 36 37 38
ATOM$RED        STATIC     ATOMS    COLORGROUP SYSTEM
4 35 36 37 38
@<TRIPOS>COMMENT
> <Gold.Version>
2022.2.0

> <Gold.Id.Protein>
1qkm|1qkm_protein|mol2

> <Gold.Protein.RotatedTorsions>
[  496  491  490  487 ] final   61.70 input  -89.99 | X-H torsion

> <Gold.Protein.ActiveResidues>
 MET295  LEU298  THR299  LEU301  ALA302  GLU305  TRP335  MET336  LEU339  MET340 
 GLY342  LEU343  ARG346  PHE356  ILE373  ILE376  PHE377  LEU380  LYS471  GLY472 
 MET473  HIS475  LEU476  LEU477  ASN478  MET479  VAL484  VAL487 

> <Gold.Protein.RotatedAtoms>
   36.5657   33.2977   42.2922 H   0  0  0  0  0  0  0  0  0  0  0  0  # atno 496  bound_to 491 

> <Gold.Score>
     Score     S(PLP)   S(hbond)     S(cho)   S(metal)  DE(clash)   DE(tors)     intcor
     56.11     -51.08       2.15       0.00       0.00       0.00       0.96       0.50

> <Gold.PLP.Fitness>
56.1065

> <Gold.PLP.PLP>
-51.0750

> <Gold.PLP.part.hbond>
-2.4021

> <Gold.PLP.part.metal>
0.0000

> <Gold.PLP.part.buried>
-5.4222

> <Gold.PLP.part.nonpolar>
-45.0669

> <Gold.PLP.part.repulsive>
0.1181

> <Gold.PLP.ligand.clash>
0.0000

> <Gold.PLP.ligand.torsion>
0.9624

> <Gold.PLP.Chemscore.Hbond>
2.1520

> <Gold.PLP.Chemscore.CHOScore>
0.0000

> <Gold.PLP.Chemscore.Metal>
0.0000

> <Gold.Chemscore.Hbonds>
donor molecule, donor type, donor heavy atom, donor atom, acceptor molecule, acceptor atom, score
      L1  H    15    36       P1   582  1.00
      L1  H    17    37       P1   582  0.86
      P1  H  1258  1270       L1    15  0.29

> <Gold.PLP.Chemscore.Internal.Correction>
0.5003

