#       Name:                EN300-7425367_i001
#       Creating user name   aseyller
#       Creation time:       Fri Apr 21 16:41:33 2023


#       File generated by GOLD software.
#

@<TRIPOS>MOLECULE
EN300-7425367_i001|aminophenols|mol2|96|dock4
    38    38     1
SMALL
USER_CHARGES


@<TRIPOS>ATOM
      1 C1          30.9416  39.6984  36.1062 C.3            1 <1>                0.0000
      2 C2          31.1727  38.3448  35.4318 C.3            1 <1>                0.0000
      3 C3          29.8506  37.8262  34.8626 C.3            1 <1>                0.0000
      4 C4          32.1875  38.5065  34.2981 C.3            1 <1>                0.0000
      5 O5          31.6839  37.3988  36.4076 O.3            1 <1>                0.0000
      6 C6          30.8207  36.9582  37.3422 C.2            1 <1>                0.0000
      7 O7          29.8394  37.6179  37.6221 O.2            1 <1>                0.0000
      8 N8          31.0449  35.7854  37.9672 N.am           1 <1>                0.0000
      9 C9          30.1057  35.3060  38.9841 C.3            1 <1>                0.0000
     10 C10         29.9568  36.3635  40.0797 C.3            1 <1>                0.0000
     11 C11         28.5187  36.4249  40.5264 C.ar           1 <1>                0.0000
     12 C12         28.1927  36.1483  41.8412 C.ar           1 <1>                0.0000
     13 C13         26.8749  36.2026  42.2568 C.ar           1 <1>                0.0000
     14 C14         25.8772  36.5352  41.3555 C.ar           1 <1>                0.0000
     15 O15         24.5808  36.5895  41.7630 O.3            1 <1>                0.0000
     16 C16         26.2050  36.8145  40.0304 C.ar           1 <1>                0.0000
     17 N17         25.2009  37.1511  39.1153 N.pl3          1 <1>                0.0000
     18 C18         27.5297  36.7631  39.6220 C.ar           1 <1>                0.0000
     19 H19         30.2187  39.5833  36.9138 H              1 <1>                0.0000
     20 H20         31.8835  40.0680  36.5116 H              1 <1>                0.0000
     21 H21         30.5578  40.4086  35.3737 H              1 <1>                0.0000
     22 H22         29.4669  38.5362  34.1302 H              1 <1>                0.0000
     23 H23         30.0153  36.8617  34.3821 H              1 <1>                0.0000
     24 H24         29.1277  37.7110  35.6703 H              1 <1>                0.0000
     25 H25         33.1293  38.8760  34.7035 H              1 <1>                0.0000
     26 H26         32.3522  37.5420  33.8176 H              1 <1>                0.0000
     27 H27         31.8037  39.2166  33.5655 H              1 <1>                0.0000
     28 H28         29.1352  35.1206  38.5237 H              1 <1>                0.0000
     29 H29         30.4834  34.3813  39.4205 H              1 <1>                0.0000
     30 H30         30.5896  36.1002  40.9272 H              1 <1>                0.0000
     31 H31         30.2578  37.3357  39.6897 H              1 <1>                0.0000
     32 H32         28.9691  35.8889  42.5454 H              1 <1>                0.0000
     33 H33         26.6234  35.9854  43.2844 H              1 <1>                0.0000
     34 H34         27.7873  36.9790  38.5956 H              1 <1>                0.0000
     35 H35         31.8283  35.2588  37.7437 H              1 <1>                0.0000
     36 H36         23.9524  36.2236  41.1255 H              1 <1>                0.0000
     37 H37         24.2755  37.1902  39.4031 H              1 <1>                0.0000
     38 H38         25.4306  37.3453  38.1930 H              1 <1>                0.0000
@<TRIPOS>BOND
    1    1    2 1     
    2    1   19 1     
    3    1   20 1     
    4    1   21 1     
    5    2    3 1     
    6    2    4 1     
    7    2    5 1     
    8    3   22 1     
    9    3   23 1     
   10    3   24 1     
   11    4   25 1     
   12    4   26 1     
   13    4   27 1     
   14    5    6 1     
   15    6    7 2     
   16    6    8 am    
   17    8    9 1     
   18    8   35 1     
   19    9   10 1     
   20    9   28 1     
   21    9   29 1     
   22   10   11 1     
   23   10   30 1     
   24   10   31 1     
   25   11   12 ar    
   26   11   18 ar    
   27   12   13 ar    
   28   12   32 1     
   29   13   14 ar    
   30   13   33 1     
   31   14   15 1     
   32   14   16 ar    
   33   15   36 1     
   34   16   17 1     
   35   16   18 ar    
   36   17   37 1     
   37   17   38 1     
   38   18   34 1     
@<TRIPOS>SUBSTRUCTURE
      1 ****           1
@<TRIPOS>SET
DONOR_HYDROGENS      STATIC     ATOMS    <user>   **** ""
4 35 36 37 38
ATOM$RED        STATIC     ATOMS    COLORGROUP SYSTEM
4 35 36 37 38
@<TRIPOS>COMMENT
> <Gold.Version>
2022.2.0

> <Gold.Id.Protein>
1qkm|1qkm_protein|mol2

> <Gold.Protein.RotatedTorsions>
[  496  491  490  487 ] final   49.07 input  -89.99 | X-H torsion

> <Gold.Protein.ActiveResidues>
 MET295  LEU298  THR299  LEU301  ALA302  GLU305  TRP335  MET336  LEU339  MET340 
 GLY342  LEU343  ARG346  PHE356  ILE373  ILE376  PHE377  LEU380  LYS471  GLY472 
 MET473  HIS475  LEU476  LEU477  ASN478  MET479  VAL484  VAL487 

> <Gold.Protein.RotatedAtoms>
   36.4660   33.4677   42.3570 H   0  0  0  0  0  0  0  0  0  0  0  0  # atno 496  bound_to 491 

> <Gold.Score>
     Score     S(PLP)   S(hbond)     S(cho)   S(metal)  DE(clash)   DE(tors)     intcor
     54.86     -49.02       2.25       0.00       0.00       0.00       0.71       0.50

> <Gold.PLP.Fitness>
54.8565

> <Gold.PLP.PLP>
-49.0152

> <Gold.PLP.part.hbond>
-3.3415

> <Gold.PLP.part.metal>
0.0000

> <Gold.PLP.part.buried>
2.4445

> <Gold.PLP.part.nonpolar>
-49.3682

> <Gold.PLP.part.repulsive>
0.1138

> <Gold.PLP.ligand.clash>
0.0000

> <Gold.PLP.ligand.torsion>
0.7079

> <Gold.PLP.Chemscore.Hbond>
2.2522

> <Gold.PLP.Chemscore.CHOScore>
0.0000

> <Gold.PLP.Chemscore.Metal>
0.0000

> <Gold.Chemscore.Hbonds>
donor molecule, donor type, donor heavy atom, donor atom, acceptor molecule, acceptor atom, score
      L1  H    15    36       P1  1131  1.00
      L1  H    17    37       P1  1131  0.50
      P1  H  1258  1270       L1    15  0.75

> <Gold.PLP.Chemscore.Internal.Correction>
0.5003

