#       Name:                EN300-7425367_i001
#       Creating user name   aseyller
#       Creation time:       Fri Apr 21 16:42:02 2023


#       File generated by GOLD software.
#

@<TRIPOS>MOLECULE
EN300-7425367_i001|aminophenols|mol2|96|dock19
    38    38     1
SMALL
USER_CHARGES


@<TRIPOS>ATOM
      1 C1          31.5176  39.1655  34.5960 C.3            1 <1>                0.0000
      2 C2          31.5893  37.7989  35.2800 C.3            1 <1>                0.0000
      3 C3          30.4289  36.9259  34.7982 C.3            1 <1>                0.0000
      4 C4          32.9162  37.1222  34.9298 C.3            1 <1>                0.0000
      5 O5          31.4995  37.9724  36.7188 O.3            1 <1>                0.0000
      6 C6          31.2781  36.8672  37.4552 C.2            1 <1>                0.0000
      7 O7          31.6840  35.7888  37.0694 O.2            1 <1>                0.0000
      8 N8          30.6064  36.9570  38.6201 N.am           1 <1>                0.0000
      9 C9          30.3655  35.7544  39.4213 C.3            1 <1>                0.0000
     10 C10         29.1029  35.0513  38.9188 C.3            1 <1>                0.0000
     11 C11         27.8859  35.7613  39.4538 C.ar           1 <1>                0.0000
     12 C12         26.9435  36.2688  38.5789 C.ar           1 <1>                0.0000
     13 C13         25.8250  36.9215  39.0639 C.ar           1 <1>                0.0000
     14 C14         25.6460  37.0681  40.4295 C.ar           1 <1>                0.0000
     15 O15         24.5462  37.7094  40.9079 O.3            1 <1>                0.0000
     16 C16         26.5951  36.5566  41.3119 C.ar           1 <1>                0.0000
     17 N17         26.4194  36.7018  42.6928 N.pl3          1 <1>                0.0000
     18 C18         27.7120  35.8984  40.8182 C.ar           1 <1>                0.0000
     19 H19         30.5723  39.6476  34.8455 H              1 <1>                0.0000
     20 H20         32.3443  39.7875  34.9392 H              1 <1>                0.0000
     21 H21         31.5850  39.0352  33.5159 H              1 <1>                0.0000
     22 H22         30.4963  36.7956  33.7182 H              1 <1>                0.0000
     23 H23         30.4800  35.9522  35.2855 H              1 <1>                0.0000
     24 H24         29.4836  37.4079  35.0477 H              1 <1>                0.0000
     25 H25         33.7429  37.7442  35.2729 H              1 <1>                0.0000
     26 H26         32.9673  36.1486  35.4171 H              1 <1>                0.0000
     27 H27         32.9835  36.9920  33.8496 H              1 <1>                0.0000
     28 H28         31.2173  35.0805  39.3302 H              1 <1>                0.0000
     29 H29         30.2338  36.0344  40.4665 H              1 <1>                0.0000
     30 H30         29.0853  35.0710  37.8292 H              1 <1>                0.0000
     31 H31         29.1012  34.0174  39.2636 H              1 <1>                0.0000
     32 H32         27.0812  36.1555  37.5138 H              1 <1>                0.0000
     33 H33         25.0910  37.3175  38.3777 H              1 <1>                0.0000
     34 H34         28.4496  35.5006  41.4995 H              1 <1>                0.0000
     35 H35         30.2823  37.8179  38.9280 H              1 <1>                0.0000
     36 H36         23.7103  37.2791  40.6817 H              1 <1>                0.0000
     37 H37         25.6361  37.1590  43.0368 H              1 <1>                0.0000
     38 H38         27.0810  36.3451  43.3061 H              1 <1>                0.0000
@<TRIPOS>BOND
    1    1    2 1     
    2    1   19 1     
    3    1   20 1     
    4    1   21 1     
    5    2    3 1     
    6    2    4 1     
    7    2    5 1     
    8    3   22 1     
    9    3   23 1     
   10    3   24 1     
   11    4   25 1     
   12    4   26 1     
   13    4   27 1     
   14    5    6 1     
   15    6    7 2     
   16    6    8 am    
   17    8    9 1     
   18    8   35 1     
   19    9   10 1     
   20    9   28 1     
   21    9   29 1     
   22   10   11 1     
   23   10   30 1     
   24   10   31 1     
   25   11   12 ar    
   26   11   18 ar    
   27   12   13 ar    
   28   12   32 1     
   29   13   14 ar    
   30   13   33 1     
   31   14   15 1     
   32   14   16 ar    
   33   15   36 1     
   34   16   17 1     
   35   16   18 ar    
   36   17   37 1     
   37   17   38 1     
   38   18   34 1     
@<TRIPOS>SUBSTRUCTURE
      1 ****           1
@<TRIPOS>SET
DONOR_HYDROGENS      STATIC     ATOMS    <user>   **** ""
4 35 36 37 38
ATOM$RED        STATIC     ATOMS    COLORGROUP SYSTEM
4 35 36 37 38
@<TRIPOS>COMMENT
> <Gold.Version>
2022.2.0

> <Gold.Id.Protein>
1qkm|1qkm_protein|mol2

> <Gold.Protein.RotatedTorsions>
[  496  491  490  487 ] final  102.10 input  -89.99 | X-H torsion

> <Gold.Protein.ActiveResidues>
 MET295  LEU298  THR299  LEU301  ALA302  GLU305  TRP335  MET336  LEU339  MET340 
 GLY342  LEU343  ARG346  PHE356  ILE373  ILE376  PHE377  LEU380  LYS471  GLY472 
 MET473  HIS475  LEU476  LEU477  ASN478  MET479  VAL484  VAL487 

> <Gold.Protein.RotatedAtoms>
   36.9305   32.9613   41.8703 H   0  0  0  0  0  0  0  0  0  0  0  0  # atno 496  bound_to 491 

> <Gold.Score>
     Score     S(PLP)   S(hbond)     S(cho)   S(metal)  DE(clash)   DE(tors)     intcor
     52.55     -50.64       1.00       0.00       0.00       0.00       0.76       0.44

> <Gold.PLP.Fitness>
52.5546

> <Gold.PLP.PLP>
-50.6372

> <Gold.PLP.part.hbond>
-2.6621

> <Gold.PLP.part.metal>
0.0000

> <Gold.PLP.part.buried>
1.5230

> <Gold.PLP.part.nonpolar>
-50.0649

> <Gold.PLP.part.repulsive>
0.0875

> <Gold.PLP.ligand.clash>
0.0000

> <Gold.PLP.ligand.torsion>
0.7632

> <Gold.PLP.Chemscore.Hbond>
1.0000

> <Gold.PLP.Chemscore.CHOScore>
0.0000

> <Gold.PLP.Chemscore.Metal>
0.0000

> <Gold.Chemscore.Hbonds>
donor molecule, donor type, donor heavy atom, donor atom, acceptor molecule, acceptor atom, score
      L1  H    15    36       P1  1131  1.00

> <Gold.PLP.Chemscore.Internal.Correction>
0.4437

