#       Name:                EN300-7425367_i001
#       Creating user name   aseyller
#       Creation time:       Fri Apr 21 16:41:39 2023


#       File generated by GOLD software.
#

@<TRIPOS>MOLECULE
EN300-7425367_i001|aminophenols|mol2|96|dock7
    38    38     1
SMALL
USER_CHARGES


@<TRIPOS>ATOM
      1 C1          26.1523  35.7197  38.5440 C.3            1 <1>                0.0000
      2 C2          26.6825  36.9473  39.2874 C.3            1 <1>                0.0000
      3 C3          26.8363  38.1108  38.3058 C.3            1 <1>                0.0000
      4 C4          25.6991  37.3387  40.3922 C.3            1 <1>                0.0000
      5 O5          27.9731  36.6367  39.8759 O.3            1 <1>                0.0000
      6 C6          28.8784  36.0352  39.0813 C.2            1 <1>                0.0000
      7 O7          28.8715  36.2457  37.8846 O.2            1 <1>                0.0000
      8 N8          29.7923  35.1997  39.6133 N.am           1 <1>                0.0000
      9 C9          30.7774  34.5452  38.7488 C.3            1 <1>                0.0000
     10 C10         32.0934  35.3242  38.7943 C.3            1 <1>                0.0000
     11 C11         32.2622  36.1003  37.5135 C.ar           1 <1>                0.0000
     12 C12         33.2666  35.7581  36.6272 C.ar           1 <1>                0.0000
     13 C13         33.4266  36.4669  35.4506 C.ar           1 <1>                0.0000
     14 C14         32.5794  37.5225  35.1568 C.ar           1 <1>                0.0000
     15 O15         32.7354  38.2201  33.9998 O.3            1 <1>                0.0000
     16 C16         31.5668  37.8677  36.0493 C.ar           1 <1>                0.0000
     17 N17         30.7078  38.9336  35.7577 N.pl3          1 <1>                0.0000
     18 C18         31.4090  37.1489  37.2252 C.ar           1 <1>                0.0000
     19 H19         26.8528  35.4408  37.7569 H              1 <1>                0.0000
     20 H20         26.0427  34.8908  39.2433 H              1 <1>                0.0000
     21 H21         25.1834  35.9528  38.1022 H              1 <1>                0.0000
     22 H22         25.8675  38.3439  37.8641 H              1 <1>                0.0000
     23 H23         27.2141  38.9854  38.8354 H              1 <1>                0.0000
     24 H24         27.5369  37.8320  37.5187 H              1 <1>                0.0000
     25 H25         25.5895  36.5098  41.0915 H              1 <1>                0.0000
     26 H26         26.0769  38.2133  40.9218 H              1 <1>                0.0000
     27 H27         24.7303  37.5719  39.9504 H              1 <1>                0.0000
     28 H28         30.9462  33.5261  39.0969 H              1 <1>                0.0000
     29 H29         30.4040  34.5222  37.7250 H              1 <1>                0.0000
     30 H30         32.0781  36.0142  39.6379 H              1 <1>                0.0000
     31 H31         32.9240  34.6279  38.9094 H              1 <1>                0.0000
     32 H32         33.9281  34.9354  36.8544 H              1 <1>                0.0000
     33 H33         34.2126  36.1975  34.7606 H              1 <1>                0.0000
     34 H34         30.6250  37.4138  37.9192 H              1 <1>                0.0000
     35 H35         29.7978  35.0316  40.5686 H              1 <1>                0.0000
     36 H36         33.6579  38.3602  33.7461 H              1 <1>                0.0000
     37 H37         30.8169  39.4330  34.9334 H              1 <1>                0.0000
     38 H38         30.0031  39.1728  36.3799 H              1 <1>                0.0000
@<TRIPOS>BOND
    1    1    2 1     
    2    1   19 1     
    3    1   20 1     
    4    1   21 1     
    5    2    3 1     
    6    2    4 1     
    7    2    5 1     
    8    3   22 1     
    9    3   23 1     
   10    3   24 1     
   11    4   25 1     
   12    4   26 1     
   13    4   27 1     
   14    5    6 1     
   15    6    7 2     
   16    6    8 am    
   17    8    9 1     
   18    8   35 1     
   19    9   10 1     
   20    9   28 1     
   21    9   29 1     
   22   10   11 1     
   23   10   30 1     
   24   10   31 1     
   25   11   12 ar    
   26   11   18 ar    
   27   12   13 ar    
   28   12   32 1     
   29   13   14 ar    
   30   13   33 1     
   31   14   15 1     
   32   14   16 ar    
   33   15   36 1     
   34   16   17 1     
   35   16   18 ar    
   36   17   37 1     
   37   17   38 1     
   38   18   34 1     
@<TRIPOS>SUBSTRUCTURE
      1 ****           1
@<TRIPOS>SET
DONOR_HYDROGENS      STATIC     ATOMS    <user>   **** ""
4 35 36 37 38
ATOM$RED        STATIC     ATOMS    COLORGROUP SYSTEM
4 35 36 37 38
@<TRIPOS>COMMENT
> <Gold.Version>
2022.2.0

> <Gold.Id.Protein>
1qkm|1qkm_protein|mol2

> <Gold.Protein.RotatedTorsions>
[  496  491  490  487 ] final -125.84 input  -89.99 | X-H torsion

> <Gold.Protein.ActiveResidues>
 MET295  LEU298  THR299  LEU301  ALA302  GLU305  TRP335  MET336  LEU339  MET340 
 GLY342  LEU343  ARG346  PHE356  ILE373  ILE376  PHE377  LEU380  LYS471  GLY472 
 MET473  HIS475  LEU476  LEU477  ASN478  MET479  VAL484  VAL487 

> <Gold.Protein.RotatedAtoms>
   37.0731   34.2787   40.7680 H   0  0  0  0  0  0  0  0  0  0  0  0  # atno 496  bound_to 491 

> <Gold.Score>
     Score     S(PLP)   S(hbond)     S(cho)   S(metal)  DE(clash)   DE(tors)     intcor
     53.90     -52.58       0.95       0.00       0.00       0.00       1.02       0.50

> <Gold.PLP.Fitness>
53.8972

> <Gold.PLP.PLP>
-52.5771

> <Gold.PLP.part.hbond>
-1.4600

> <Gold.PLP.part.metal>
0.0000

> <Gold.PLP.part.buried>
-5.4211

> <Gold.PLP.part.nonpolar>
-46.3033

> <Gold.PLP.part.repulsive>
0.0614

> <Gold.PLP.ligand.clash>
0.0000

> <Gold.PLP.ligand.torsion>
1.0151

> <Gold.PLP.Chemscore.Hbond>
0.9500

> <Gold.PLP.Chemscore.CHOScore>
0.0000

> <Gold.PLP.Chemscore.Metal>
0.0000

> <Gold.Chemscore.Hbonds>
donor molecule, donor type, donor heavy atom, donor atom, acceptor molecule, acceptor atom, score
      L1  H    15    36       P1  3229  0.95

> <Gold.PLP.Chemscore.Internal.Correction>
0.5003

