#       Name:                EN300-7425367_i001
#       Creating user name   aseyller
#       Creation time:       Fri Apr 21 16:41:35 2023


#       File generated by GOLD software.
#

@<TRIPOS>MOLECULE
EN300-7425367_i001|aminophenols|mol2|96|dock5
    38    38     1
SMALL
USER_CHARGES


@<TRIPOS>ATOM
      1 C1          26.2078  36.1232  40.9021 C.3            1 <1>                0.0000
      2 C2          27.2469  36.3357  39.7995 C.3            1 <1>                0.0000
      3 C3          28.5405  36.8733  40.4146 C.3            1 <1>                0.0000
      4 C4          27.5293  35.0039  39.1012 C.3            1 <1>                0.0000
      5 O5          26.7375  37.2910  38.8319 O.3            1 <1>                0.0000
      6 C6          27.6045  37.7469  37.9082 C.2            1 <1>                0.0000
      7 O7          28.5203  37.0413  37.5341 O.2            1 <1>                0.0000
      8 N8          27.4565  38.9857  37.3984 N.am           1 <1>                0.0000
      9 C9          28.3999  39.4817  36.3934 C.3            1 <1>                0.0000
     10 C10         29.7872  39.6241  37.0226 C.3            1 <1>                0.0000
     11 C11         30.7876  38.8360  36.2166 C.ar           1 <1>                0.0000
     12 C12         31.0156  39.1611  34.8923 C.ar           1 <1>                0.0000
     13 C13         31.9320  38.4413  34.1477 C.ar           1 <1>                0.0000
     14 C14         32.6248  37.3918  34.7281 C.ar           1 <1>                0.0000
     15 O15         33.5267  36.6833  33.9970 O.3            1 <1>                0.0000
     16 C16         32.3959  37.0638  36.0627 C.ar           1 <1>                0.0000
     17 N17         33.0932  36.0042  36.6543 N.pl3          1 <1>                0.0000
     18 C18         31.4790  37.7937  36.8049 C.ar           1 <1>                0.0000
     19 H19         26.0066  37.0719  41.3996 H              1 <1>                0.0000
     20 H20         25.2862  35.7400  40.4639 H              1 <1>                0.0000
     21 H21         26.5903  35.4060  41.6285 H              1 <1>                0.0000
     22 H22         28.9230  36.1563  41.1409 H              1 <1>                0.0000
     23 H23         29.2809  37.0248  39.6290 H              1 <1>                0.0000
     24 H24         28.3394  37.8222  40.9120 H              1 <1>                0.0000
     25 H25         26.6078  34.6208  38.6631 H              1 <1>                0.0000
     26 H26         28.2696  35.1553  38.3156 H              1 <1>                0.0000
     27 H27         27.9118  34.2867  39.8276 H              1 <1>                0.0000
     28 H28         28.4484  38.7782  35.5622 H              1 <1>                0.0000
     29 H29         28.0650  40.4527  36.0286 H              1 <1>                0.0000
     30 H30         30.0756  40.6751  37.0322 H              1 <1>                0.0000
     31 H31         29.7637  39.2444  38.0440 H              1 <1>                0.0000
     32 H32         30.4765  39.9791  34.4381 H              1 <1>                0.0000
     33 H33         32.1073  38.6974  33.1133 H              1 <1>                0.0000
     34 H34         31.2992  37.5421  37.8397 H              1 <1>                0.0000
     35 H35         26.7254  39.5489  37.6971 H              1 <1>                0.0000
     36 H36         33.1456  36.2341  33.2302 H              1 <1>                0.0000
     37 H37         33.7367  35.4970  36.1352 H              1 <1>                0.0000
     38 H38         32.9328  35.7770  37.5836 H              1 <1>                0.0000
@<TRIPOS>BOND
    1    1    2 1     
    2    1   19 1     
    3    1   20 1     
    4    1   21 1     
    5    2    3 1     
    6    2    4 1     
    7    2    5 1     
    8    3   22 1     
    9    3   23 1     
   10    3   24 1     
   11    4   25 1     
   12    4   26 1     
   13    4   27 1     
   14    5    6 1     
   15    6    7 2     
   16    6    8 am    
   17    8    9 1     
   18    8   35 1     
   19    9   10 1     
   20    9   28 1     
   21    9   29 1     
   22   10   11 1     
   23   10   30 1     
   24   10   31 1     
   25   11   12 ar    
   26   11   18 ar    
   27   12   13 ar    
   28   12   32 1     
   29   13   14 ar    
   30   13   33 1     
   31   14   15 1     
   32   14   16 ar    
   33   15   36 1     
   34   16   17 1     
   35   16   18 ar    
   36   17   37 1     
   37   17   38 1     
   38   18   34 1     
@<TRIPOS>SUBSTRUCTURE
      1 ****           1
@<TRIPOS>SET
DONOR_HYDROGENS      STATIC     ATOMS    <user>   **** ""
4 35 36 37 38
ATOM$RED        STATIC     ATOMS    COLORGROUP SYSTEM
4 35 36 37 38
@<TRIPOS>COMMENT
> <Gold.Version>
2022.2.0

> <Gold.Id.Protein>
1qkm|1qkm_protein|mol2

> <Gold.Protein.RotatedTorsions>
[  496  491  490  487 ] final   88.07 input  -89.99 | X-H torsion

> <Gold.Protein.ActiveResidues>
 MET295  LEU298  THR299  LEU301  ALA302  GLU305  TRP335  MET336  LEU339  MET340 
 GLY342  LEU343  ARG346  PHE356  ILE373  ILE376  PHE377  LEU380  LYS471  GLY472 
 MET473  HIS475  LEU476  LEU477  ASN478  MET479  VAL484  VAL487 

> <Gold.Protein.RotatedAtoms>
   36.8024   33.0351   42.0470 H   0  0  0  0  0  0  0  0  0  0  0  0  # atno 496  bound_to 491 

> <Gold.Score>
     Score     S(PLP)   S(hbond)     S(cho)   S(metal)  DE(clash)   DE(tors)     intcor
     52.81     -51.20       0.93       0.00       0.00       0.00       0.84       0.50

> <Gold.PLP.Fitness>
52.8093

> <Gold.PLP.PLP>
-51.2019

> <Gold.PLP.part.hbond>
-2.9991

> <Gold.PLP.part.metal>
0.0000

> <Gold.PLP.part.buried>
-4.8794

> <Gold.PLP.part.nonpolar>
-44.2255

> <Gold.PLP.part.repulsive>
0.0231

> <Gold.PLP.ligand.clash>
0.0000

> <Gold.PLP.ligand.torsion>
0.8358

> <Gold.PLP.Chemscore.Hbond>
0.9263

> <Gold.PLP.Chemscore.CHOScore>
0.0000

> <Gold.PLP.Chemscore.Metal>
0.0000

> <Gold.Chemscore.Hbonds>
donor molecule, donor type, donor heavy atom, donor atom, acceptor molecule, acceptor atom, score
      L1  H    15    36       P1  3187  0.93

> <Gold.PLP.Chemscore.Internal.Correction>
0.5003

