#       Name:                EN300-7425367_i001
#       Creating user name   aseyller
#       Creation time:       Fri Apr 21 16:41:53 2023


#       File generated by GOLD software.
#

@<TRIPOS>MOLECULE
EN300-7425367_i001|aminophenols|mol2|96|dock14
    38    38     1
SMALL
USER_CHARGES


@<TRIPOS>ATOM
      1 C1          32.4688  37.8862  33.9871 C.3            1 <1>                0.0000
      2 C2          31.7261  37.8990  35.3246 C.3            1 <1>                0.0000
      3 C3          31.3058  36.4736  35.6883 C.3            1 <1>                0.0000
      4 C4          32.6467  38.4529  36.4139 C.3            1 <1>                0.0000
      5 O5          30.5463  38.7385  35.2151 O.3            1 <1>                0.0000
      6 C6          29.7262  38.7824  36.2820 C.2            1 <1>                0.0000
      7 O7          30.0783  38.2979  37.3393 O.2            1 <1>                0.0000
      8 N8          28.5149  39.3638  36.1774 N.am           1 <1>                0.0000
      9 C9          27.6226  39.4116  37.3382 C.3            1 <1>                0.0000
     10 C10         26.7237  38.1736  37.3418 C.3            1 <1>                0.0000
     11 C11         26.9592  37.3854  38.6046 C.ar           1 <1>                0.0000
     12 C12         28.2335  36.9503  38.9183 C.ar           1 <1>                0.0000
     13 C13         28.4556  36.2264  40.0754 C.ar           1 <1>                0.0000
     14 C14         27.4005  35.9356  40.9241 C.ar           1 <1>                0.0000
     15 O15         27.6176  35.2241  42.0627 O.3            1 <1>                0.0000
     16 C16         26.1161  36.3740  40.6089 C.ar           1 <1>                0.0000
     17 N17         25.0461  36.0829  41.4629 N.pl3          1 <1>                0.0000
     18 C18         25.9017  37.1042  39.4491 C.ar           1 <1>                0.0000
     19 H19         31.8129  37.4916  33.2111 H              1 <1>                0.0000
     20 H20         32.7683  38.9017  33.7280 H              1 <1>                0.0000
     21 H21         33.3544  37.2560  34.0693 H              1 <1>                0.0000
     22 H22         32.1913  35.8435  35.7705 H              1 <1>                0.0000
     23 H23         30.7766  36.4828  36.6412 H              1 <1>                0.0000
     24 H24         30.6499  36.0790  34.9122 H              1 <1>                0.0000
     25 H25         32.9462  39.4684  36.1549 H              1 <1>                0.0000
     26 H26         32.1175  38.4621  37.3669 H              1 <1>                0.0000
     27 H27         33.5324  37.8227  36.4962 H              1 <1>                0.0000
     28 H28         28.2163  39.4322  38.2522 H              1 <1>                0.0000
     29 H29         27.0055  40.3085  37.2855 H              1 <1>                0.0000
     30 H30         25.6795  38.4826  37.2959 H              1 <1>                0.0000
     31 H31         26.9571  37.5525  36.4771 H              1 <1>                0.0000
     32 H32         29.0575  37.1762  38.2579 H              1 <1>                0.0000
     33 H33         29.4521  35.8875  40.3173 H              1 <1>                0.0000
     34 H34         24.9074  37.4456  39.2018 H              1 <1>                0.0000
     35 H35         28.2338  39.7505  35.3333 H              1 <1>                0.0000
     36 H36         26.8086  34.9300  42.5032 H              1 <1>                0.0000
     37 H37         25.1980  35.5754  42.2754 H              1 <1>                0.0000
     38 H38         24.1524  36.3888  41.2422 H              1 <1>                0.0000
@<TRIPOS>BOND
    1    1    2 1     
    2    1   19 1     
    3    1   20 1     
    4    1   21 1     
    5    2    3 1     
    6    2    4 1     
    7    2    5 1     
    8    3   22 1     
    9    3   23 1     
   10    3   24 1     
   11    4   25 1     
   12    4   26 1     
   13    4   27 1     
   14    5    6 1     
   15    6    7 2     
   16    6    8 am    
   17    8    9 1     
   18    8   35 1     
   19    9   10 1     
   20    9   28 1     
   21    9   29 1     
   22   10   11 1     
   23   10   30 1     
   24   10   31 1     
   25   11   12 ar    
   26   11   18 ar    
   27   12   13 ar    
   28   12   32 1     
   29   13   14 ar    
   30   13   33 1     
   31   14   15 1     
   32   14   16 ar    
   33   15   36 1     
   34   16   17 1     
   35   16   18 ar    
   36   17   37 1     
   37   17   38 1     
   38   18   34 1     
@<TRIPOS>SUBSTRUCTURE
      1 ****           1
@<TRIPOS>SET
DONOR_HYDROGENS      STATIC     ATOMS    <user>   **** ""
4 35 36 37 38
ATOM$RED        STATIC     ATOMS    COLORGROUP SYSTEM
4 35 36 37 38
@<TRIPOS>COMMENT
> <Gold.Version>
2022.2.0

> <Gold.Id.Protein>
1qkm|1qkm_protein|mol2

> <Gold.Protein.RotatedTorsions>
[  496  491  490  487 ] final  -20.53 input  -89.99 | X-H torsion

> <Gold.Protein.ActiveResidues>
 MET295  LEU298  THR299  LEU301  ALA302  GLU305  TRP335  MET336  LEU339  MET340 
 GLY342  LEU343  ARG346  PHE356  ILE373  ILE376  PHE377  LEU380  LYS471  GLY472 
 MET473  HIS475  LEU476  LEU477  ASN478  MET479  VAL484  VAL487 

> <Gold.Protein.RotatedAtoms>
   36.2823   34.4758   42.0269 H   0  0  0  0  0  0  0  0  0  0  0  0  # atno 496  bound_to 491 

> <Gold.Score>
     Score     S(PLP)   S(hbond)     S(cho)   S(metal)  DE(clash)   DE(tors)     intcor
     53.80     -48.26       2.35       0.00       0.00       0.58       0.69       0.44

> <Gold.PLP.Fitness>
53.7977

> <Gold.PLP.PLP>
-48.2581

> <Gold.PLP.part.hbond>
-2.5663

> <Gold.PLP.part.metal>
0.0000

> <Gold.PLP.part.buried>
-5.9259

> <Gold.PLP.part.nonpolar>
-41.1885

> <Gold.PLP.part.repulsive>
0.1499

> <Gold.PLP.ligand.clash>
0.5783

> <Gold.PLP.ligand.torsion>
0.6940

> <Gold.PLP.Chemscore.Hbond>
2.3541

> <Gold.PLP.Chemscore.CHOScore>
0.0000

> <Gold.PLP.Chemscore.Metal>
0.0000

> <Gold.Chemscore.Hbonds>
donor molecule, donor type, donor heavy atom, donor atom, acceptor molecule, acceptor atom, score
      L1  H    15    36       P1   582  0.97
      L1  H    17    37       P1   582  1.00
      L1  H    17    38       P1  1131  0.39

> <Gold.PLP.Chemscore.Internal.Correction>
0.4437

