#       Name:                EN300-7425367_i001
#       Creating user name   aseyller
#       Creation time:       Fri Apr 21 16:41:47 2023


#       File generated by GOLD software.
#

@<TRIPOS>MOLECULE
EN300-7425367_i001|aminophenols|mol2|96|dock11
    38    38     1
SMALL
USER_CHARGES


@<TRIPOS>ATOM
      1 C1          33.9630  36.4013  35.1442 C.3            1 <1>                0.0000
      2 C2          32.8043  37.3959  35.2407 C.3            1 <1>                0.0000
      3 C3          33.2438  38.6132  36.0566 C.3            1 <1>                0.0000
      4 C4          32.3982  37.8436  33.8352 C.3            1 <1>                0.0000
      5 O5          31.6732  36.7595  35.8917 O.3            1 <1>                0.0000
      6 C6          30.6420  37.5526  36.2386 C.2            1 <1>                0.0000
      7 O7          30.3952  38.5481  35.5869 O.2            1 <1>                0.0000
      8 N8          29.8834  37.2424  37.3084 N.am           1 <1>                0.0000
      9 C9          28.7614  38.1054  37.6858 C.3            1 <1>                0.0000
     10 C10         27.4546  37.3160  37.5854 C.3            1 <1>                0.0000
     11 C11         26.8705  37.1340  38.9627 C.ar           1 <1>                0.0000
     12 C12         25.6394  37.6841  39.2679 C.ar           1 <1>                0.0000
     13 C13         25.0986  37.5207  40.5301 C.ar           1 <1>                0.0000
     14 C14         25.7902  36.8042  41.4927 C.ar           1 <1>                0.0000
     15 O15         25.2593  36.6423  42.7344 O.3            1 <1>                0.0000
     16 C16         27.0307  36.2492  41.1859 C.ar           1 <1>                0.0000
     17 N17         27.7340  35.5241  42.1548 N.pl3          1 <1>                0.0000
     18 C18         27.5645  36.4127  39.9160 C.ar           1 <1>                0.0000
     19 H19         34.2524  36.0824  36.1455 H              1 <1>                0.0000
     20 H20         33.6500  35.5341  34.5629 H              1 <1>                0.0000
     21 H21         34.8122  36.8791  34.6555 H              1 <1>                0.0000
     22 H22         34.0929  39.0909  35.5680 H              1 <1>                0.0000
     23 H23         32.4183  39.3217  36.1254 H              1 <1>                0.0000
     24 H24         33.5331  38.2942  37.0580 H              1 <1>                0.0000
     25 H25         32.0852  36.9764  33.2538 H              1 <1>                0.0000
     26 H26         31.5727  38.5522  33.9039 H              1 <1>                0.0000
     27 H27         33.2474  38.3214  33.3464 H              1 <1>                0.0000
     28 H28         28.8984  38.4525  38.7100 H              1 <1>                0.0000
     29 H29         28.7204  38.9628  37.0140 H              1 <1>                0.0000
     30 H30         26.7478  37.8615  36.9602 H              1 <1>                0.0000
     31 H31         27.6529  36.3399  37.1429 H              1 <1>                0.0000
     32 H32         25.0987  38.2430  38.5186 H              1 <1>                0.0000
     33 H33         24.1370  37.9522  40.7655 H              1 <1>                0.0000
     34 H34         28.5259  35.9838  39.6748 H              1 <1>                0.0000
     35 H35         30.0804  36.4477  37.8287 H              1 <1>                0.0000
     36 H36         25.7530  36.0296  43.2966 H              1 <1>                0.0000
     37 H37         27.3579  35.4075  43.0412 H              1 <1>                0.0000
     38 H38         28.5976  35.1382  41.9397 H              1 <1>                0.0000
@<TRIPOS>BOND
    1    1    2 1     
    2    1   19 1     
    3    1   20 1     
    4    1   21 1     
    5    2    3 1     
    6    2    4 1     
    7    2    5 1     
    8    3   22 1     
    9    3   23 1     
   10    3   24 1     
   11    4   25 1     
   12    4   26 1     
   13    4   27 1     
   14    5    6 1     
   15    6    7 2     
   16    6    8 am    
   17    8    9 1     
   18    8   35 1     
   19    9   10 1     
   20    9   28 1     
   21    9   29 1     
   22   10   11 1     
   23   10   30 1     
   24   10   31 1     
   25   11   12 ar    
   26   11   18 ar    
   27   12   13 ar    
   28   12   32 1     
   29   13   14 ar    
   30   13   33 1     
   31   14   15 1     
   32   14   16 ar    
   33   15   36 1     
   34   16   17 1     
   35   16   18 ar    
   36   17   37 1     
   37   17   38 1     
   38   18   34 1     
@<TRIPOS>SUBSTRUCTURE
      1 ****           1
@<TRIPOS>SET
DONOR_HYDROGENS      STATIC     ATOMS    <user>   **** ""
4 35 36 37 38
ATOM$RED        STATIC     ATOMS    COLORGROUP SYSTEM
4 35 36 37 38
@<TRIPOS>COMMENT
> <Gold.Version>
2022.2.0

> <Gold.Id.Protein>
1qkm|1qkm_protein|mol2

> <Gold.Protein.RotatedTorsions>
[  496  491  490  487 ] final   44.07 input  -89.99 | X-H torsion

> <Gold.Protein.ActiveResidues>
 MET295  LEU298  THR299  LEU301  ALA302  GLU305  TRP335  MET336  LEU339  MET340 
 GLY342  LEU343  ARG346  PHE356  ILE373  ILE376  PHE377  LEU380  LYS471  GLY472 
 MET473  HIS475  LEU476  LEU477  ASN478  MET479  VAL484  VAL487 

> <Gold.Protein.RotatedAtoms>
   36.4306   33.5404   42.3720 H   0  0  0  0  0  0  0  0  0  0  0  0  # atno 496  bound_to 491 

> <Gold.Score>
     Score     S(PLP)   S(hbond)     S(cho)   S(metal)  DE(clash)   DE(tors)     intcor
     54.50     -49.33       2.10       0.00       0.00       0.00       0.82       0.50

> <Gold.PLP.Fitness>
54.5018

> <Gold.PLP.PLP>
-49.3299

> <Gold.PLP.part.hbond>
-2.7451

> <Gold.PLP.part.metal>
0.0000

> <Gold.PLP.part.buried>
-3.9337

> <Gold.PLP.part.nonpolar>
-43.6079

> <Gold.PLP.part.repulsive>
0.1109

> <Gold.PLP.ligand.clash>
0.0000

> <Gold.PLP.ligand.torsion>
0.8202

> <Gold.PLP.Chemscore.Hbond>
2.1040

> <Gold.PLP.Chemscore.CHOScore>
0.0000

> <Gold.PLP.Chemscore.Metal>
0.0000

> <Gold.Chemscore.Hbonds>
donor molecule, donor type, donor heavy atom, donor atom, acceptor molecule, acceptor atom, score
      L1  H    15    36       P1   582  1.00
      L1  H    17    37       P1   582  0.78
      P1  H  1258  1270       L1    15  0.32

> <Gold.PLP.Chemscore.Internal.Correction>
0.5003

