#       Name:                EN300-7425367_i001
#       Creating user name   aseyller
#       Creation time:       Fri Apr 21 16:41:45 2023


#       File generated by GOLD software.
#

@<TRIPOS>MOLECULE
EN300-7425367_i001|aminophenols|mol2|96|dock10
    38    38     1
SMALL
USER_CHARGES


@<TRIPOS>ATOM
      1 C1          32.6987  36.7395  37.2708 C.3            1 <1>                0.0000
      2 C2          32.4512  36.8004  35.7622 C.3            1 <1>                0.0000
      3 C3          33.1503  38.0304  35.1800 C.3            1 <1>                0.0000
      4 C4          33.0083  35.5372  35.1026 C.3            1 <1>                0.0000
      5 O5          31.0242  36.8895  35.5091 O.3            1 <1>                0.0000
      6 C6          30.3367  37.8151  36.2042 C.2            1 <1>                0.0000
      7 O7          30.9193  38.7596  36.6994 O.2            1 <1>                0.0000
      8 N8          29.0024  37.6943  36.3507 N.am           1 <1>                0.0000
      9 C9          28.2544  38.7016  37.1071 C.3            1 <1>                0.0000
     10 C10         26.9456  38.0916  37.6128 C.3            1 <1>                0.0000
     11 C11         27.2053  37.3317  38.8881 C.ar           1 <1>                0.0000
     12 C12         28.4940  36.9518  39.2142 C.ar           1 <1>                0.0000
     13 C13         28.7384  36.2540  40.3828 C.ar           1 <1>                0.0000
     14 C14         27.6910  35.9341  41.2307 C.ar           1 <1>                0.0000
     15 O15         27.9300  35.2482  42.3806 O.3            1 <1>                0.0000
     16 C16         26.3921  36.3169  40.9031 C.ar           1 <1>                0.0000
     17 N17         25.3298  35.9962  41.7561 N.pl3          1 <1>                0.0000
     18 C18         26.1553  37.0212  39.7316 C.ar           1 <1>                0.0000
     19 H19         32.3019  37.6393  37.7407 H              1 <1>                0.0000
     20 H20         32.2008  35.8631  37.6856 H              1 <1>                0.0000
     21 H21         33.7700  36.6726  37.4608 H              1 <1>                0.0000
     22 H22         34.2215  37.9635  35.3700 H              1 <1>                0.0000
     23 H23         32.9739  38.0738  34.1052 H              1 <1>                0.0000
     24 H24         32.7534  38.9304  35.6499 H              1 <1>                0.0000
     25 H25         32.5103  34.6609  35.5174 H              1 <1>                0.0000
     26 H26         32.8319  35.5806  34.0278 H              1 <1>                0.0000
     27 H27         34.0796  35.4703  35.2926 H              1 <1>                0.0000
     28 H28         28.8512  39.0359  37.9557 H              1 <1>                0.0000
     29 H29         28.0335  39.5512  36.4610 H              1 <1>                0.0000
     30 H30         26.2244  38.8861  37.8038 H              1 <1>                0.0000
     31 H31         26.5467  37.4120  36.8598 H              1 <1>                0.0000
     32 H32         29.3120  37.2004  38.5544 H              1 <1>                0.0000
     33 H33         29.7461  35.9581  40.6343 H              1 <1>                0.0000
     34 H34         25.1495  37.3195  39.4747 H              1 <1>                0.0000
     35 H35         28.5374  36.9404  35.9555 H              1 <1>                0.0000
     36 H36         27.1651  34.7586  42.7129 H              1 <1>                0.0000
     37 H37         25.4973  35.5069  42.5767 H              1 <1>                0.0000
     38 H38         24.4259  36.2634  41.5268 H              1 <1>                0.0000
@<TRIPOS>BOND
    1    1    2 1     
    2    1   19 1     
    3    1   20 1     
    4    1   21 1     
    5    2    3 1     
    6    2    4 1     
    7    2    5 1     
    8    3   22 1     
    9    3   23 1     
   10    3   24 1     
   11    4   25 1     
   12    4   26 1     
   13    4   27 1     
   14    5    6 1     
   15    6    7 2     
   16    6    8 am    
   17    8    9 1     
   18    8   35 1     
   19    9   10 1     
   20    9   28 1     
   21    9   29 1     
   22   10   11 1     
   23   10   30 1     
   24   10   31 1     
   25   11   12 ar    
   26   11   18 ar    
   27   12   13 ar    
   28   12   32 1     
   29   13   14 ar    
   30   13   33 1     
   31   14   15 1     
   32   14   16 ar    
   33   15   36 1     
   34   16   17 1     
   35   16   18 ar    
   36   17   37 1     
   37   17   38 1     
   38   18   34 1     
@<TRIPOS>SUBSTRUCTURE
      1 ****           1
@<TRIPOS>SET
DONOR_HYDROGENS      STATIC     ATOMS    <user>   **** ""
4 35 36 37 38
ATOM$RED        STATIC     ATOMS    COLORGROUP SYSTEM
4 35 36 37 38
@<TRIPOS>COMMENT
> <Gold.Version>
2022.2.0

> <Gold.Id.Protein>
1qkm|1qkm_protein|mol2

> <Gold.Protein.RotatedTorsions>
[  496  491  490  487 ] final  146.35 input  -89.99 | X-H torsion

> <Gold.Protein.ActiveResidues>
 MET295  LEU298  THR299  LEU301  ALA302  GLU305  TRP335  MET336  LEU339  MET340 
 GLY342  LEU343  ARG346  PHE356  ILE373  ILE376  PHE377  LEU380  LYS471  GLY472 
 MET473  HIS475  LEU476  LEU477  ASN478  MET479  VAL484  VAL487 

> <Gold.Protein.RotatedAtoms>
   37.2466   33.0727   41.2439 H   0  0  0  0  0  0  0  0  0  0  0  0  # atno 496  bound_to 491 

> <Gold.Score>
     Score     S(PLP)   S(hbond)     S(cho)   S(metal)  DE(clash)   DE(tors)     intcor
     54.07     -49.46       1.99       0.00       0.00       0.02       0.92       0.50

> <Gold.PLP.Fitness>
54.0683

> <Gold.PLP.PLP>
-49.4578

> <Gold.PLP.part.hbond>
-1.8873

> <Gold.PLP.part.metal>
0.0000

> <Gold.PLP.part.buried>
-4.5644

> <Gold.PLP.part.nonpolar>
-45.1147

> <Gold.PLP.part.repulsive>
0.1557

> <Gold.PLP.ligand.clash>
0.0234

> <Gold.PLP.ligand.torsion>
0.9201

> <Gold.PLP.Chemscore.Hbond>
1.9913

> <Gold.PLP.Chemscore.CHOScore>
0.0000

> <Gold.PLP.Chemscore.Metal>
0.0000

> <Gold.Chemscore.Hbonds>
donor molecule, donor type, donor heavy atom, donor atom, acceptor molecule, acceptor atom, score
      L1  H    15    36       P1   582  0.99
      L1  H    17    37       P1   582  1.00

> <Gold.PLP.Chemscore.Internal.Correction>
0.5003

