#       Name:                EN300-7425367_i001
#       Creating user name   aseyller
#       Creation time:       Fri Apr 21 16:41:28 2023


#       File generated by GOLD software.
#

@<TRIPOS>MOLECULE
EN300-7425367_i001|aminophenols|mol2|96|dock1
    38    38     1
SMALL
USER_CHARGES


@<TRIPOS>ATOM
      1 C1          32.2841  35.4681  35.5010 C.3            1 <1>                0.0000
      2 C2          32.9350  36.8479  35.3852 C.3            1 <1>                0.0000
      3 C3          34.4441  36.7197  35.6023 C.3            1 <1>                0.0000
      4 C4          32.6670  37.4230  33.9929 C.3            1 <1>                0.0000
      5 O5          32.3748  37.7332  36.3906 O.3            1 <1>                0.0000
      6 C6          31.0343  37.8551  36.4191 C.2            1 <1>                0.0000
      7 O7          30.3665  37.4390  35.4931 O.2            1 <1>                0.0000
      8 N8          30.4330  38.4386  37.4748 N.am           1 <1>                0.0000
      9 C9          28.9744  38.5712  37.5058 C.3            1 <1>                0.0000
     10 C10         28.3344  37.1836  37.4299 C.3            1 <1>                0.0000
     11 C11         27.4807  36.9566  38.6509 C.ar           1 <1>                0.0000
     12 C12         26.2632  37.6007  38.7706 C.ar           1 <1>                0.0000
     13 C13         25.4758  37.3966  39.8889 C.ar           1 <1>                0.0000
     14 C14         25.9056  36.5449  40.8929 C.ar           1 <1>                0.0000
     15 O15         25.1320  36.3430  41.9932 O.3            1 <1>                0.0000
     16 C16         27.1322  35.8951  40.7730 C.ar           1 <1>                0.0000
     17 N17         27.5716  35.0334  41.7845 N.pl3          1 <1>                0.0000
     18 C18         27.9143  36.1006  39.6458 C.ar           1 <1>                0.0000
     19 H19         32.4750  35.0584  36.4928 H              1 <1>                0.0000
     20 H20         31.2090  35.5594  35.3463 H              1 <1>                0.0000
     21 H21         32.7046  34.8035  34.7463 H              1 <1>                0.0000
     22 H22         34.8645  36.0551  34.8476 H              1 <1>                0.0000
     23 H23         34.9078  37.7027  35.5198 H              1 <1>                0.0000
     24 H24         34.6349  36.3100  36.5942 H              1 <1>                0.0000
     25 H25         31.5920  37.5142  33.8382 H              1 <1>                0.0000
     26 H26         33.1307  38.4060  33.9105 H              1 <1>                0.0000
     27 H27         33.0876  36.7583  33.2382 H              1 <1>                0.0000
     28 H28         28.6736  39.0598  38.4326 H              1 <1>                0.0000
     29 H29         28.6458  39.1698  36.6562 H              1 <1>                0.0000
     30 H30         27.7145  37.1178  36.5358 H              1 <1>                0.0000
     31 H31         29.1158  36.4250  37.3868 H              1 <1>                0.0000
     32 H32         25.9264  38.2651  37.9887 H              1 <1>                0.0000
     33 H33         24.5256  37.9018  39.9796 H              1 <1>                0.0000
     34 H34         28.8657  35.5985  39.5497 H              1 <1>                0.0000
     35 H35         30.9660  38.7708  38.2140 H              1 <1>                0.0000
     36 H36         25.3355  35.5285  42.4731 H              1 <1>                0.0000
     37 H37         27.0220  34.8878  42.5704 H              1 <1>                0.0000
     38 H38         28.4258  34.5816  41.6997 H              1 <1>                0.0000
@<TRIPOS>BOND
    1    1    2 1     
    2    1   19 1     
    3    1   20 1     
    4    1   21 1     
    5    2    3 1     
    6    2    4 1     
    7    2    5 1     
    8    3   22 1     
    9    3   23 1     
   10    3   24 1     
   11    4   25 1     
   12    4   26 1     
   13    4   27 1     
   14    5    6 1     
   15    6    7 2     
   16    6    8 am    
   17    8    9 1     
   18    8   35 1     
   19    9   10 1     
   20    9   28 1     
   21    9   29 1     
   22   10   11 1     
   23   10   30 1     
   24   10   31 1     
   25   11   12 ar    
   26   11   18 ar    
   27   12   13 ar    
   28   12   32 1     
   29   13   14 ar    
   30   13   33 1     
   31   14   15 1     
   32   14   16 ar    
   33   15   36 1     
   34   16   17 1     
   35   16   18 ar    
   36   17   37 1     
   37   17   38 1     
   38   18   34 1     
@<TRIPOS>SUBSTRUCTURE
      1 ****           1
@<TRIPOS>SET
DONOR_HYDROGENS      STATIC     ATOMS    <user>   **** ""
4 35 36 37 38
ATOM$RED        STATIC     ATOMS    COLORGROUP SYSTEM
4 35 36 37 38
@<TRIPOS>COMMENT
> <Gold.Version>
2022.2.0

> <Gold.Id.Protein>
1qkm|1qkm_protein|mol2

> <Gold.Protein.RotatedTorsions>
[  496  491  490  487 ] final  120.09 input  -89.99 | X-H torsion

> <Gold.Protein.ActiveResidues>
 MET295  LEU298  THR299  LEU301  ALA302  GLU305  TRP335  MET336  LEU339  MET340 
 GLY342  LEU343  ARG346  PHE356  ILE373  ILE376  PHE377  LEU380  LYS471  GLY472 
 MET473  HIS475  LEU476  LEU477  ASN478  MET479  VAL484  VAL487 

> <Gold.Protein.RotatedAtoms>
   37.0813   32.9434   41.6175 H   0  0  0  0  0  0  0  0  0  0  0  0  # atno 496  bound_to 491 

> <Gold.Score>
     Score     S(PLP)   S(hbond)     S(cho)   S(metal)  DE(clash)   DE(tors)     intcor
     60.71     -53.61       2.67       0.00       0.00       0.14       0.72       0.66

> <Gold.PLP.Fitness>
60.7104

> <Gold.PLP.PLP>
-53.6096

> <Gold.PLP.part.hbond>
-3.0000

> <Gold.PLP.part.metal>
0.0000

> <Gold.PLP.part.buried>
-4.5473

> <Gold.PLP.part.nonpolar>
-47.1767

> <Gold.PLP.part.repulsive>
0.1072

> <Gold.PLP.ligand.clash>
0.1361

> <Gold.PLP.ligand.torsion>
0.7189

> <Gold.PLP.Chemscore.Hbond>
2.6720

> <Gold.PLP.Chemscore.CHOScore>
0.0000

> <Gold.PLP.Chemscore.Metal>
0.0000

> <Gold.Chemscore.Hbonds>
donor molecule, donor type, donor heavy atom, donor atom, acceptor molecule, acceptor atom, score
      L1  H    15    36       P1   582  1.00
      L1  H    17    37       P1   582  1.00
      P1  H  1258  1270       L1    15  0.67

> <Gold.PLP.Chemscore.Internal.Correction>
0.6587

