#       Name:                EN300-7425367_i001
#       Creating user name   aseyller
#       Creation time:       Fri Apr 21 16:41:58 2023


#       File generated by GOLD software.
#

@<TRIPOS>MOLECULE
EN300-7425367_i001|aminophenols|mol2|96|dock17
    38    38     1
SMALL
USER_CHARGES


@<TRIPOS>ATOM
      1 C1          32.7884  38.1366  36.5062 C.3            1 <1>                0.0000
      2 C2          31.8756  37.8806  35.3054 C.3            1 <1>                0.0000
      3 C3          32.6590  38.1098  34.0113 C.3            1 <1>                0.0000
      4 C4          31.3708  36.4369  35.3470 C.3            1 <1>                0.0000
      5 O5          30.7449  38.7903  35.3542 O.3            1 <1>                0.0000
      6 C6          29.8484  38.5987  36.3403 C.2            1 <1>                0.0000
      7 O7          30.1711  37.9990  37.3467 O.2            1 <1>                0.0000
      8 N8          28.5932  39.0722  36.2114 N.am           1 <1>                0.0000
      9 C9          27.6179  38.8637  37.2843 C.3            1 <1>                0.0000
     10 C10         27.4971  37.3675  37.5801 C.3            1 <1>                0.0000
     11 C11         26.9211  37.1730  38.9592 C.ar           1 <1>                0.0000
     12 C12         25.7228  37.7739  39.2970 C.ar           1 <1>                0.0000
     13 C13         25.1896  37.5994  40.5610 C.ar           1 <1>                0.0000
     14 C14         25.8558  36.8205  41.4925 C.ar           1 <1>                0.0000
     15 O15         25.3324  36.6476  42.7359 O.3            1 <1>                0.0000
     16 C16         27.0633  36.2142  41.1527 C.ar           1 <1>                0.0000
     17 N17         27.7409  35.4261  42.0901 N.pl3          1 <1>                0.0000
     18 C18         27.5894  36.3895  39.8812 C.ar           1 <1>                0.0000
     19 H19         33.1480  39.1651  36.4765 H              1 <1>                0.0000
     20 H20         32.2303  37.9733  37.4281 H              1 <1>                0.0000
     21 H21         33.6372  37.4537  36.4695 H              1 <1>                0.0000
     22 H22         33.5077  37.4269  33.9746 H              1 <1>                0.0000
     23 H23         32.0086  37.9274  33.1557 H              1 <1>                0.0000
     24 H24         33.0186  39.1384  33.9816 H              1 <1>                0.0000
     25 H25         30.8127  36.2735  36.2690 H              1 <1>                0.0000
     26 H26         30.7204  36.2545  34.4915 H              1 <1>                0.0000
     27 H27         32.2196  35.7540  35.3103 H              1 <1>                0.0000
     28 H28         27.9483  39.3861  38.1822 H              1 <1>                0.0000
     29 H29         26.6478  39.2522  36.9742 H              1 <1>                0.0000
     30 H30         26.8412  36.9033  36.8437 H              1 <1>                0.0000
     31 H31         28.4834  36.9064  37.5300 H              1 <1>                0.0000
     32 H32         25.2018  38.3815  38.5720 H              1 <1>                0.0000
     33 H33         24.2536  38.0708  40.8220 H              1 <1>                0.0000
     34 H34         28.5253  35.9209  39.6145 H              1 <1>                0.0000
     35 H35         28.3356  39.5509  35.4080 H              1 <1>                0.0000
     36 H36         25.3461  35.7313  43.0446 H              1 <1>                0.0000
     37 H37         27.3701  35.3014  42.9777 H              1 <1>                0.0000
     38 H38         28.5815  35.0045  41.8521 H              1 <1>                0.0000
@<TRIPOS>BOND
    1    1    2 1     
    2    1   19 1     
    3    1   20 1     
    4    1   21 1     
    5    2    3 1     
    6    2    4 1     
    7    2    5 1     
    8    3   22 1     
    9    3   23 1     
   10    3   24 1     
   11    4   25 1     
   12    4   26 1     
   13    4   27 1     
   14    5    6 1     
   15    6    7 2     
   16    6    8 am    
   17    8    9 1     
   18    8   35 1     
   19    9   10 1     
   20    9   28 1     
   21    9   29 1     
   22   10   11 1     
   23   10   30 1     
   24   10   31 1     
   25   11   12 ar    
   26   11   18 ar    
   27   12   13 ar    
   28   12   32 1     
   29   13   14 ar    
   30   13   33 1     
   31   14   15 1     
   32   14   16 ar    
   33   15   36 1     
   34   16   17 1     
   35   16   18 ar    
   36   17   37 1     
   37   17   38 1     
   38   18   34 1     
@<TRIPOS>SUBSTRUCTURE
      1 ****           1
@<TRIPOS>SET
DONOR_HYDROGENS      STATIC     ATOMS    <user>   **** ""
4 35 36 37 38
ATOM$RED        STATIC     ATOMS    COLORGROUP SYSTEM
4 35 36 37 38
@<TRIPOS>COMMENT
> <Gold.Version>
2022.2.0

> <Gold.Id.Protein>
1qkm|1qkm_protein|mol2

> <Gold.Protein.RotatedTorsions>
[  496  491  490  487 ] final   26.51 input  -89.99 | X-H torsion

> <Gold.Protein.ActiveResidues>
 MET295  LEU298  THR299  LEU301  ALA302  GLU305  TRP335  MET336  LEU339  MET340 
 GLY342  LEU343  ARG346  PHE356  ILE373  ILE376  PHE377  LEU380  LYS471  GLY472 
 MET473  HIS475  LEU476  LEU477  ASN478  MET479  VAL484  VAL487 

> <Gold.Protein.RotatedAtoms>
   36.3294   33.8100   42.3750 H   0  0  0  0  0  0  0  0  0  0  0  0  # atno 496  bound_to 491 

> <Gold.Score>
     Score     S(PLP)   S(hbond)     S(cho)   S(metal)  DE(clash)   DE(tors)     intcor
     56.00     -50.12       2.15       0.00       0.00       0.00       0.51       0.44

> <Gold.PLP.Fitness>
56.0022

> <Gold.PLP.PLP>
-50.1242

> <Gold.PLP.part.hbond>
-2.7946

> <Gold.PLP.part.metal>
0.0000

> <Gold.PLP.part.buried>
-2.8987

> <Gold.PLP.part.nonpolar>
-45.2663

> <Gold.PLP.part.repulsive>
0.0739

> <Gold.PLP.ligand.clash>
0.0000

> <Gold.PLP.ligand.torsion>
0.5109

> <Gold.PLP.Chemscore.Hbond>
2.1520

> <Gold.PLP.Chemscore.CHOScore>
0.0000

> <Gold.PLP.Chemscore.Metal>
0.0000

> <Gold.Chemscore.Hbonds>
donor molecule, donor type, donor heavy atom, donor atom, acceptor molecule, acceptor atom, score
      L1  H    15    36       P1   582  1.00
      L1  H    17    37       P1   582  0.85
      P1  H  1258  1270       L1    15  0.30

> <Gold.PLP.Chemscore.Internal.Correction>
0.4437

