#       Name:                plp ligand
#       Creating user name   aseyller
#       Creation time:       Fri Apr 21 16:41:26 2023


#       File generated by GOLD software.
#

@<TRIPOS>MOLECULE
plp ligand
    38    38     1
SMALL
USER_CHARGES


@<TRIPOS>ATOM
      1 C1          -4.2875   1.4903   0.7899 NONPOLAR       1 <1>                0.0000
      2 C2          -4.3907   0.0888   0.1850 NONPOLAR       1 <1>                0.0000
      3 C3          -4.4033  -0.9513   1.3070 NONPOLAR       1 <1>                0.0000
      4 C4          -5.6823  -0.0221  -0.6277 NONPOLAR       1 <1>                0.0000
      5 O5          -3.2510  -0.1490  -0.6827 ACCEPTOR       1 <1>                0.0000
      6 C6          -2.0300  -0.0874  -0.1187 NONPOLAR       1 <1>                0.0000
      7 O7          -1.9198   0.1583   1.0662 ACCEPTOR       1 <1>                0.0000
      8 N8          -0.9300  -0.2984  -0.8683 DONOR          1 <1>                0.0000
      9 C9           0.3985  -0.2314  -0.2546 NONPOLAR       1 <1>                0.0000
     10 C10          1.4652  -0.5068  -1.3163 NONPOLAR       1 <1>                0.0000
     11 C11          2.8319  -0.4379  -0.6849 NONPOLAR       1 <1>                0.0000
     12 C12          3.4017  -1.5774  -0.1480 NONPOLAR       1 <1>                0.0000
     13 C13          4.6553  -1.5202   0.4330 NONPOLAR       1 <1>                0.0000
     14 C14          5.3440  -0.3194   0.4780 NONPOLAR       1 <1>                0.0000
     15 O15          6.5772  -0.2618   1.0487 DONACC         1 <1>                0.0000
     16 C16          4.7707   0.8293  -0.0632 NONPOLAR       1 <1>                0.0000
     17 N17          5.4621   2.0455  -0.0205 DONOR          1 <1>                0.0000
     18 C18          3.5150   0.7632  -0.6491 NONPOLAR       1 <1>                0.0000
     19 H19         -3.3674   1.5693   1.3689                1 <1>                0.0000
     20 H20         -4.2786   2.2313  -0.0094                1 <1>                0.0000
     21 H21         -5.1431   1.6688   1.4413                1 <1>                0.0000
     22 H22         -5.2588  -0.7728   1.9583                1 <1>                0.0000
     23 H23         -4.4768  -1.9498   0.8760                1 <1>                0.0000
     24 H24         -3.4831  -0.8723   1.8860                1 <1>                0.0000
     25 H25         -5.6734   0.7189  -1.4270                1 <1>                0.0000
     26 H26         -5.7558  -1.0206  -1.0587                1 <1>                0.0000
     27 H27         -6.5379   0.1564   0.0237                1 <1>                0.0000
     28 H28          0.5540   0.7614   0.1677                1 <1>                0.0000
     29 H29          0.4716  -0.9781   0.5361                1 <1>                0.0000
     30 H30          1.3097  -1.4995  -1.7386                1 <1>                0.0000
     31 H31          1.3922   0.2399  -2.1069                1 <1>                0.0000
     32 H32          2.8663  -2.5146  -0.1822                1 <1>                0.0000
     33 H33          5.0973  -2.4120   0.8521                1 <1>                0.0000
     34 H34          3.0677   1.6518  -1.0696                1 <1>                0.0000
     35 H35         -1.0180  -0.4945  -1.8142                1 <1>                0.0000
     36 H36          7.3039  -0.4281   0.4328                1 <1>                0.0000
     37 H37          6.3416   2.0895   0.3863                1 <1>                0.0000
     38 H38          5.0617   2.8444  -0.3977                1 <1>                0.0000
@<TRIPOS>BOND
    1    1    2 1     
    2    1   19 1     
    3    1   20 1     
    4    1   21 1     
    5    2    3 1     
    6    2    4 1     
    7    2    5 1     
    8    3   22 1     
    9    3   23 1     
   10    3   24 1     
   11    4   25 1     
   12    4   26 1     
   13    4   27 1     
   14    5    6 1     
   15    6    7 2     
   16    6    8 am    
   17    8    9 1     
   18    8   35 1     
   19    9   10 1     
   20    9   28 1     
   21    9   29 1     
   22   10   11 1     
   23   10   30 1     
   24   10   31 1     
   25   11   12 ar    
   26   11   18 ar    
   27   12   13 ar    
   28   12   32 1     
   29   13   14 ar    
   30   13   33 1     
   31   14   15 1     
   32   14   16 ar    
   33   15   36 1     
   34   16   17 1     
   35   16   18 ar    
   36   17   37 1     
   37   17   38 1     
   38   18   34 1     
@<TRIPOS>SUBSTRUCTURE
      1 ****           1
@<TRIPOS>SET
DONOR_HYDROGENS      STATIC     ATOMS    <user>   **** ""
4 35 36 37 38
ATOM$RED        STATIC     ATOMS    COLORGROUP SYSTEM
4 35 36 37 38
