#       Name:                acide_i001
#       Creating user name   fsindt
#       Creation time:       Fri Aug 11 18:08:48 2023


#       File generated by GOLD software.
#

@<TRIPOS>MOLECULE
acide_i001|acide|mol2|1|dock14
    25    25     1
SMALL
NO_CHARGES


@<TRIPOS>ATOM
      1 C1          -1.2384 -18.8687   8.5003 C.3            1 <1>                0.0000
      2 C2          -0.7009 -17.7431   9.3863 C.3            1 <1>                0.0000
      3 C3          -0.4827 -18.2642  10.7833 C.ar           1 <1>                0.0000
      4 C4          -0.3799 -19.6254  11.0023 C.ar           1 <1>                0.0000
      5 C5          -0.1794 -20.1183  12.2793 C.ar           1 <1>                0.0000
      6 Cl6         -0.0522 -21.8307  12.5354 Cl             1 <1>                0.0000
      7 C7          -0.0794 -19.2501  13.3549 C.ar           1 <1>                0.0000
      8 O8           0.1175 -19.7356  14.6060 O.3            1 <1>                0.0000
      9 C9           1.3822 -20.3444  14.8740 C.3            1 <1>                0.0000
     10 C10         -0.1824 -17.8654  13.1440 C.ar           1 <1>                0.0000
     11 C11         -0.0781 -16.9351  14.2750 C.2            1 <1>                0.0000
     12 O12         -0.7213 -17.1388  15.2961 O.co2          1 <1>                0.0000
     13 O13          0.6518 -15.9559  14.1966 O.co2          1 <1>                0.0000
     14 C14         -0.3801 -17.3770  11.8421 C.ar           1 <1>                0.0000
     15 O15         -0.4808 -16.0421  11.6239 O.3            1 <1>                0.0000
     16 H16         -1.3964 -18.4918   7.4898 H              1 <1>                0.0000
     17 H17         -0.5181 -19.6864   8.4747 H              1 <1>                0.0000
     18 H18         -2.1838 -19.2299   8.9052 H              1 <1>                0.0000
     19 H19          0.2444 -17.3819   8.9813 H              1 <1>                0.0000
     20 H20         -1.4212 -16.9254   9.4119 H              1 <1>                0.0000
     21 H21         -0.4570 -20.3093  10.1699 H              1 <1>                0.0000
     22 H22          1.4079 -20.6890  15.9078 H              1 <1>                0.0000
     23 H23          1.5263 -21.1926  14.2047 H              1 <1>                0.0000
     24 H24          2.1774 -19.6161  14.7139 H              1 <1>                0.0000
     25 H25         -1.3727 -15.7472  11.3947 H              1 <1>                0.0000
@<TRIPOS>BOND
    1    1    2 1     
    2    1   16 1     
    3    1   17 1     
    4    1   18 1     
    5    2    3 1     
    6    2   19 1     
    7    2   20 1     
    8    3   14 ar    
    9    3    4 ar    
   10    4    5 ar    
   11    4   21 1     
   12    5    6 1     
   13    5    7 ar    
   14    7    8 1     
   15    7   10 ar    
   16    8    9 1     
   17    9   22 1     
   18    9   23 1     
   19    9   24 1     
   20   10   11 1     
   21   10   14 ar    
   22   11   12 ar    
   23   11   13 ar    
   24   14   15 1     
   25   15   25 1     
@<TRIPOS>SUBSTRUCTURE
      1 ****           1
@<TRIPOS>SET
DONOR_HYDROGENS      STATIC     ATOMS    <user>   **** ""
1 25
ATOM$RED        STATIC     ATOMS    COLORGROUP SYSTEM
1 25
@<TRIPOS>COMMENT
> <Gold.Version>
2022.2.0

> <Gold.Id.Protein>
3pbl|protein|mol2

> <Gold.Protein.RotatedTorsions>
[ 1303 1298 1297 1294 ] final    1.12 input  179.99 | X-H torsion
[ 2461 2456 2455 2452 ] final   36.32 input   30.03 | X-H torsion
[ 2515 2510 2509 2506 ] final  115.79 input  -89.99 | X-H torsion
[ 3721 3712 3711 3710 ] final  -39.71 input -179.91 | X-H torsion
[ 3841 3832 3831 3830 ] final -109.51 input -179.91 | X-H torsion
[ 3767 3762 3761 3758 ] final  -29.01 input  -89.99 | X-H torsion
[ 2472 2467 2466 2463 ] final   56.74 input  -89.97 | X-H torsion

> <Gold.Protein.ActiveResidues>
 VAL82   VAL86   LEU89   PHE106  VAL107  ASP110  VAL111  MET112  CYS114  THR115 
 CYS181  SER182  ILE183  PHE188  VAL189  ILE190  SER192  SER193  SER196  TRP342 
 PHE345  PHE346  HIS349  VAL350  TYR365  THR369  GLY372  TYR373 

> <Gold.Protein.RotatedAtoms>
    3.3920   -9.8870    4.0571 H   0  0  0  0  0  0  0  0  0  0  0  0  # atno 1303 bound_to 1298
    1.6093   -7.9269    7.1678 H   0  0  0  0  0  0  0  0  0  0  0  0  # atno 2461 bound_to 2456
   -4.5897   -4.8137    7.6588 H   0  0  0  0  0  0  0  0  0  0  0  0  # atno 2472 bound_to 2467
    2.0352   -8.0998    6.0474 H   0  0  0  0  0  0  0  0  0  0  0  0  # atno 2515 bound_to 2510
   -2.6603  -17.5882   14.6672 H   0  0  0  0  0  0  0  0  0  0  0  0  # atno 3721 bound_to 3712
   -5.4963  -22.3634   10.4086 H   0  0  0  0  0  0  0  0  0  0  0  0  # atno 3767 bound_to 3762
    2.0845  -19.5797    8.5311 H   0  0  0  0  0  0  0  0  0  0  0  0  # atno 3841 bound_to 3832
    4.2180   -8.4787    4.0840 LP  0  0  0  0  0  0  0  0  0  0  0  0  # atno 4297 bound_to 1298
    4.7524   -9.7554    4.9507 LP  0  0  0  0  0  0  0  0  0  0  0  0  # atno 4298 bound_to 1298
    0.3367   -8.8383    7.6340 LP  0  0  0  0  0  0  0  0  0  0  0  0  # atno 4299 bound_to 2456
    1.7919   -9.0428    8.3462 LP  0  0  0  0  0  0  0  0  0  0  0  0  # atno 4300 bound_to 2456
    2.5691   -7.6748    4.5641 LP  0  0  0  0  0  0  0  0  0  0  0  0  # atno 4301 bound_to 2510
    2.6927   -9.2246    5.0634 LP  0  0  0  0  0  0  0  0  0  0  0  0  # atno 4302 bound_to 2510
   -3.5670  -16.5624   13.8284 LP  0  0  0  0  0  0  0  0  0  0  0  0  # atno 4306 bound_to 3712
   -2.8894  -17.8580   13.1011 LP  0  0  0  0  0  0  0  0  0  0  0  0  # atno 4307 bound_to 3712
    3.1095  -20.8055    8.6822 LP  0  0  0  0  0  0  0  0  0  0  0  0  # atno 4314 bound_to 3832
    1.7120  -20.7822    9.5267 LP  0  0  0  0  0  0  0  0  0  0  0  0  # atno 4315 bound_to 3832
   -4.4485  -22.1835   11.6482 LP  0  0  0  0  0  0  0  0  0  0  0  0  # atno 4318 bound_to 3762
   -4.1829  -23.3280   10.5141 LP  0  0  0  0  0  0  0  0  0  0  0  0  # atno 4319 bound_to 3762
   -3.7516   -5.2056    9.0043 LP  0  0  0  0  0  0  0  0  0  0  0  0  # atno 4320 bound_to 2467
   -5.3756   -5.3741    8.9759 LP  0  0  0  0  0  0  0  0  0  0  0  0  # atno 4321 bound_to 2467

> <Gold.Score>
     Score     S(PLP)   S(hbond)     S(cho)   S(metal)  DE(clash)   DE(tors)     intcor
     37.45     -34.22       1.84       0.00       0.00       0.00       1.15       0.01

> <Gold.PLP.Fitness>
37.4472

> <Gold.PLP.PLP>
-34.2248

> <Gold.PLP.part.hbond>
-1.8746

> <Gold.PLP.part.metal>
0.0000

> <Gold.PLP.part.buried>
-0.9753

> <Gold.PLP.part.nonpolar>
-31.2583

> <Gold.PLP.part.repulsive>
0.0795

> <Gold.PLP.ligand.clash>
0.0000

> <Gold.PLP.ligand.torsion>
1.1492

> <Gold.PLP.Chemscore.Hbond>
1.8378

> <Gold.PLP.Chemscore.CHOScore>
0.0000

> <Gold.PLP.Chemscore.Metal>
0.0000

> <Gold.Chemscore.Hbonds>
donor molecule, donor type, donor heavy atom, donor atom, acceptor molecule, acceptor atom, score
      P1  H  2305  2313       L1    13  0.89
      P1  H  3712  3721       L1    12  0.94

> <Gold.PLP.Chemscore.Internal.Correction>
0.0076

