#       Name:                acide_i001
#       Creating user name   fsindt
#       Creation time:       Fri Aug 11 18:08:39 2023


#       File generated by GOLD software.
#

@<TRIPOS>MOLECULE
acide_i001|acide|mol2|1|dock4
    25    25     1
SMALL
NO_CHARGES


@<TRIPOS>ATOM
      1 C1          -4.0423 -10.5661  10.4630 C.3            1 <1>                0.0000
      2 C2          -2.6451 -10.2780  11.0158 C.3            1 <1>                0.0000
      3 C3          -1.6878 -11.3403  10.5402 C.ar           1 <1>                0.0000
      4 C4          -1.5000 -12.4847  11.2929 C.ar           1 <1>                0.0000
      5 C5          -0.6245 -13.4684  10.8690 C.ar           1 <1>                0.0000
      6 Cl6         -0.4016 -14.8991  11.8268 Cl             1 <1>                0.0000
      7 C7           0.0750 -13.3161   9.6823 C.ar           1 <1>                0.0000
      8 O8           0.9326 -14.2821   9.2685 O.3            1 <1>                0.0000
      9 C9           0.4115 -15.2771   8.3851 C.3            1 <1>                0.0000
     10 C10         -0.1081 -12.1576   8.9099 C.ar           1 <1>                0.0000
     11 C11          0.6269 -11.9842   7.6508 C.2            1 <1>                0.0000
     12 O12          0.7426 -10.8698   7.1583 O.co2          1 <1>                0.0000
     13 O13          1.1238 -12.9540   7.0937 O.co2          1 <1>                0.0000
     14 C14         -1.0039 -11.1687   9.3480 C.ar           1 <1>                0.0000
     15 O15         -1.1908 -10.0451   8.6116 O.3            1 <1>                0.0000
     16 H16         -4.7348  -9.7978  10.8070 H              1 <1>                0.0000
     17 H17         -4.0095 -10.5642   9.3734 H              1 <1>                0.0000
     18 H18         -4.3782 -11.5417  10.8146 H              1 <1>                0.0000
     19 H19         -2.3093  -9.3025  10.6642 H              1 <1>                0.0000
     20 H20         -2.6779 -10.2800  12.1053 H              1 <1>                0.0000
     21 H21         -2.0407 -12.6115  12.2192 H              1 <1>                0.0000
     22 H22          1.1991 -15.9870   8.1322 H              1 <1>                0.0000
     23 H23         -0.4086 -15.8033   8.8737 H              1 <1>                0.0000
     24 H24          0.0464 -14.8002   7.4754 H              1 <1>                0.0000
     25 H25         -2.0689  -9.6522   8.7095 H              1 <1>                0.0000
@<TRIPOS>BOND
    1    1    2 1     
    2    1   16 1     
    3    1   17 1     
    4    1   18 1     
    5    2    3 1     
    6    2   19 1     
    7    2   20 1     
    8    3   14 ar    
    9    3    4 ar    
   10    4    5 ar    
   11    4   21 1     
   12    5    6 1     
   13    5    7 ar    
   14    7    8 1     
   15    7   10 ar    
   16    8    9 1     
   17    9   22 1     
   18    9   23 1     
   19    9   24 1     
   20   10   11 1     
   21   10   14 ar    
   22   11   12 ar    
   23   11   13 ar    
   24   14   15 1     
   25   15   25 1     
@<TRIPOS>SUBSTRUCTURE
      1 ****           1
@<TRIPOS>SET
DONOR_HYDROGENS      STATIC     ATOMS    <user>   **** ""
1 25
ATOM$RED        STATIC     ATOMS    COLORGROUP SYSTEM
1 25
@<TRIPOS>COMMENT
> <Gold.Version>
2022.2.0

> <Gold.Id.Protein>
3pbl|protein|mol2

> <Gold.Protein.RotatedTorsions>
[ 1303 1298 1297 1294 ] final  151.15 input  179.99 | X-H torsion
[ 2461 2456 2455 2452 ] final -102.32 input   30.03 | X-H torsion
[ 2515 2510 2509 2506 ] final -159.31 input  -89.99 | X-H torsion
[ 3721 3712 3711 3710 ] final   86.80 input -179.91 | X-H torsion
[ 3841 3832 3831 3830 ] final   26.48 input -179.91 | X-H torsion
[ 3767 3762 3761 3758 ] final  -97.44 input  -89.99 | X-H torsion
[ 2472 2467 2466 2463 ] final  -95.31 input  -89.97 | X-H torsion

> <Gold.Protein.ActiveResidues>
 VAL82   VAL86   LEU89   PHE106  VAL107  ASP110  VAL111  MET112  CYS114  THR115 
 CYS181  SER182  ILE183  PHE188  VAL189  ILE190  SER192  SER193  SER196  TRP342 
 PHE345  PHE346  HIS349  VAL350  TYR365  THR369  GLY372  TYR373 

> <Gold.Protein.RotatedAtoms>
    4.9057   -9.2971    4.8800 H   0  0  0  0  0  0  0  0  0  0  0  0  # atno 1303 bound_to 1298
    0.4179   -9.0319    7.8558 H   0  0  0  0  0  0  0  0  0  0  0  0  # atno 2461 bound_to 2456
   -4.1174   -5.3669    9.3378 H   0  0  0  0  0  0  0  0  0  0  0  0  # atno 2472 bound_to 2467
    2.4681   -9.2033    5.5851 H   0  0  0  0  0  0  0  0  0  0  0  0  # atno 2515 bound_to 2510
   -2.7608  -17.6522   13.1247 H   0  0  0  0  0  0  0  0  0  0  0  0  # atno 3721 bound_to 3712
   -5.1410  -21.9140   11.3010 H   0  0  0  0  0  0  0  0  0  0  0  0  # atno 3767 bound_to 3762
    2.0216  -20.7551    9.6224 H   0  0  0  0  0  0  0  0  0  0  0  0  # atno 3841 bound_to 3832
    3.6443  -10.1872    4.3482 LP  0  0  0  0  0  0  0  0  0  0  0  0  # atno 4297 bound_to 1298
    3.8119   -8.6370    3.8631 LP  0  0  0  0  0  0  0  0  0  0  0  0  # atno 4298 bound_to 1298
    1.9980   -8.8516    8.2272 LP  0  0  0  0  0  0  0  0  0  0  0  0  # atno 4299 bound_to 2456
    1.3216   -7.9248    7.0652 LP  0  0  0  0  0  0  0  0  0  0  0  0  # atno 4300 bound_to 2456
    2.0661   -7.6277    5.7323 LP  0  0  0  0  0  0  0  0  0  0  0  0  # atno 4301 bound_to 2510
    2.7625   -8.1678    4.3576 LP  0  0  0  0  0  0  0  0  0  0  0  0  # atno 4302 bound_to 2510
   -2.7836  -17.7906   14.7241 LP  0  0  0  0  0  0  0  0  0  0  0  0  # atno 4306 bound_to 3712
   -3.5567  -16.5559   13.9863 LP  0  0  0  0  0  0  0  0  0  0  0  0  # atno 4307 bound_to 3712
    1.7723  -19.6553    8.4803 LP  0  0  0  0  0  0  0  0  0  0  0  0  # atno 4314 bound_to 3832
    3.1218  -20.5747    8.4679 LP  0  0  0  0  0  0  0  0  0  0  0  0  # atno 4315 bound_to 3832
   -3.9080  -22.9804   11.2045 LP  0  0  0  0  0  0  0  0  0  0  0  0  # atno 4318 bound_to 3762
   -5.0785  -22.9804   10.0658 LP  0  0  0  0  0  0  0  0  0  0  0  0  # atno 4319 bound_to 3762
   -5.5099   -5.2168    8.4984 LP  0  0  0  0  0  0  0  0  0  0  0  0  # atno 4320 bound_to 2467
   -4.0895   -4.8099    7.8031 LP  0  0  0  0  0  0  0  0  0  0  0  0  # atno 4321 bound_to 2467

> <Gold.Score>
     Score     S(PLP)   S(hbond)     S(cho)   S(metal)  DE(clash)   DE(tors)     intcor
     50.30     -49.09       1.00       0.00       0.00       0.00       0.90       0.01

> <Gold.PLP.Fitness>
50.3036

> <Gold.PLP.PLP>
-49.0902

> <Gold.PLP.part.hbond>
-2.0000

> <Gold.PLP.part.metal>
0.0000

> <Gold.PLP.part.buried>
-4.4673

> <Gold.PLP.part.nonpolar>
-43.9299

> <Gold.PLP.part.repulsive>
0.1845

> <Gold.PLP.ligand.clash>
0.0000

> <Gold.PLP.ligand.torsion>
0.8971

> <Gold.PLP.Chemscore.Hbond>
1.0000

> <Gold.PLP.Chemscore.CHOScore>
0.0000

> <Gold.PLP.Chemscore.Metal>
0.0000

> <Gold.Chemscore.Hbonds>
donor molecule, donor type, donor heavy atom, donor atom, acceptor molecule, acceptor atom, score
      P1  H  2456  2461       L1    15  1.00

> <Gold.PLP.Chemscore.Internal.Correction>
0.0076

