#       Name:                acide_i001
#       Creating user name   fsindt
#       Creation time:       Fri Aug 11 18:08:43 2023


#       File generated by GOLD software.
#

@<TRIPOS>MOLECULE
acide_i001|acide|mol2|1|dock8
    25    25     1
SMALL
NO_CHARGES


@<TRIPOS>ATOM
      1 C1          -2.4999 -10.6962  10.4827 C.3            1 <1>                0.0000
      2 C2          -1.0697 -10.9615  10.9568 C.3            1 <1>                0.0000
      3 C3          -0.6465 -12.3430  10.5285 C.ar           1 <1>                0.0000
      4 C4          -0.7036 -13.3906  11.4289 C.ar           1 <1>                0.0000
      5 C5          -0.3185 -14.6642  11.0500 C.ar           1 <1>                0.0000
      6 Cl6         -0.3973 -15.9678  12.1938 Cl             1 <1>                0.0000
      7 C7           0.1297 -14.9032   9.7605 C.ar           1 <1>                0.0000
      8 O8           0.5064 -16.1528   9.3912 O.3            1 <1>                0.0000
      9 C9          -0.4648 -16.9479   8.7080 C.3            1 <1>                0.0000
     10 C10          0.1918 -13.8464   8.8377 C.ar           1 <1>                0.0000
     11 C11          0.6646 -14.0865   7.4687 C.2            1 <1>                0.0000
     12 O12          0.6966 -13.1665   6.6622 O.co2          1 <1>                0.0000
     13 O13          1.0267 -15.2066   7.1340 O.co2          1 <1>                0.0000
     14 C14         -0.2074 -12.5591   9.2328 C.ar           1 <1>                0.0000
     15 O15         -0.1531 -11.5293   8.3517 O.3            1 <1>                0.0000
     16 H16         -2.8060  -9.6970  10.7926 H              1 <1>                0.0000
     17 H17         -2.5417 -10.7683   9.3959 H              1 <1>                0.0000
     18 H18         -3.1711 -11.4343  10.9219 H              1 <1>                0.0000
     19 H19         -0.3985 -10.2234  10.5177 H              1 <1>                0.0000
     20 H20         -1.0279 -10.8894  12.0437 H              1 <1>                0.0000
     21 H21         -1.0512 -13.2133  12.4359 H              1 <1>                0.0000
     22 H22         -0.0356 -17.9213   8.4705 H              1 <1>                0.0000
     23 H23         -1.3384 -17.0819   9.3459 H              1 <1>                0.0000
     24 H24         -0.7614 -16.4469   7.7864 H              1 <1>                0.0000
     25 H25          0.7287 -11.1464   8.2480 H              1 <1>                0.0000
@<TRIPOS>BOND
    1    1    2 1     
    2    1   16 1     
    3    1   17 1     
    4    1   18 1     
    5    2    3 1     
    6    2   19 1     
    7    2   20 1     
    8    3   14 ar    
    9    3    4 ar    
   10    4    5 ar    
   11    4   21 1     
   12    5    6 1     
   13    5    7 ar    
   14    7    8 1     
   15    7   10 ar    
   16    8    9 1     
   17    9   22 1     
   18    9   23 1     
   19    9   24 1     
   20   10   11 1     
   21   10   14 ar    
   22   11   12 ar    
   23   11   13 ar    
   24   14   15 1     
   25   15   25 1     
@<TRIPOS>SUBSTRUCTURE
      1 ****           1
@<TRIPOS>SET
DONOR_HYDROGENS      STATIC     ATOMS    <user>   **** ""
1 25
ATOM$RED        STATIC     ATOMS    COLORGROUP SYSTEM
1 25
@<TRIPOS>COMMENT
> <Gold.Version>
2022.2.0

> <Gold.Id.Protein>
3pbl|protein|mol2

> <Gold.Protein.RotatedTorsions>
[ 1303 1298 1297 1294 ] final   75.68 input  179.99 | X-H torsion
[ 2461 2456 2455 2452 ] final  166.07 input   30.03 | X-H torsion
[ 2515 2510 2509 2506 ] final  -76.57 input  -89.99 | X-H torsion
[ 3721 3712 3711 3710 ] final   37.82 input -179.91 | X-H torsion
[ 3841 3832 3831 3830 ] final  -36.41 input -179.91 | X-H torsion
[ 3767 3762 3761 3758 ] final -168.70 input  -89.99 | X-H torsion
[ 2472 2467 2466 2463 ] final  -37.26 input  -89.97 | X-H torsion

> <Gold.Protein.ActiveResidues>
 VAL82   VAL86   LEU89   PHE106  VAL107  ASP110  VAL111  MET112  CYS114  THR115 
 CYS181  SER182  ILE183  PHE188  VAL189  ILE190  SER192  SER193  SER196  TRP342 
 PHE345  PHE346  HIS349  VAL350  TYR365  THR369  GLY372  TYR373 

> <Gold.Protein.RotatedAtoms>
    4.2239  -10.2207    4.7646 H   0  0  0  0  0  0  0  0  0  0  0  0  # atno 1303 bound_to 1298
    1.6597   -9.1257    8.3829 H   0  0  0  0  0  0  0  0  0  0  0  0  # atno 2461 bound_to 2456
   -3.6357   -5.0568    8.6244 H   0  0  0  0  0  0  0  0  0  0  0  0  # atno 2472 bound_to 2467
    2.8356   -8.7523    4.4836 H   0  0  0  0  0  0  0  0  0  0  0  0  # atno 2515 bound_to 2510
   -2.5007  -18.0192   13.6846 H   0  0  0  0  0  0  0  0  0  0  0  0  # atno 3721 bound_to 3712
   -4.2076  -22.3963   11.6221 H   0  0  0  0  0  0  0  0  0  0  0  0  # atno 3767 bound_to 3762
    1.5621  -20.0563    9.2813 H   0  0  0  0  0  0  0  0  0  0  0  0  # atno 3841 bound_to 3832
    3.3898   -9.2088    3.7917 LP  0  0  0  0  0  0  0  0  0  0  0  0  # atno 4297 bound_to 1298
    4.7485   -8.6915    4.5352 LP  0  0  0  0  0  0  0  0  0  0  0  0  # atno 4298 bound_to 1298
    1.7462   -7.9569    7.2455 LP  0  0  0  0  0  0  0  0  0  0  0  0  # atno 4299 bound_to 2456
    0.3320   -8.7258    7.5199 LP  0  0  0  0  0  0  0  0  0  0  0  0  # atno 4300 bound_to 2456
    2.2172   -8.8371    5.9923 LP  0  0  0  0  0  0  0  0  0  0  0  0  # atno 4301 bound_to 2510
    2.2438   -7.4096    5.1997 LP  0  0  0  0  0  0  0  0  0  0  0  0  # atno 4302 bound_to 2510
   -3.1688  -17.1033   14.8216 LP  0  0  0  0  0  0  0  0  0  0  0  0  # atno 4306 bound_to 3712
   -3.4718  -16.8195   13.2423 LP  0  0  0  0  0  0  0  0  0  0  0  0  # atno 4307 bound_to 3712
    2.6785  -19.9005    8.1388 LP  0  0  0  0  0  0  0  0  0  0  0  0  # atno 4314 bound_to 3832
    2.7464  -21.1367    9.2036 LP  0  0  0  0  0  0  0  0  0  0  0  0  # atno 4315 bound_to 3832
   -4.4174  -23.3221   10.2933 LP  0  0  0  0  0  0  0  0  0  0  0  0  # atno 4318 bound_to 3762
   -5.5022  -22.1566   10.6559 LP  0  0  0  0  0  0  0  0  0  0  0  0  # atno 4319 bound_to 3762
   -5.0820   -5.4489    9.2731 LP  0  0  0  0  0  0  0  0  0  0  0  0  # atno 4320 bound_to 2467
   -4.9990   -4.8879    7.7417 LP  0  0  0  0  0  0  0  0  0  0  0  0  # atno 4321 bound_to 2467

> <Gold.Score>
     Score     S(PLP)   S(hbond)     S(cho)   S(metal)  DE(clash)   DE(tors)     intcor
     37.82     -39.06       0.00       0.00       0.00       0.00       0.62       0.01

> <Gold.PLP.Fitness>
37.8157

> <Gold.PLP.PLP>
-39.0553

> <Gold.PLP.part.hbond>
0.0000

> <Gold.PLP.part.metal>
0.0000

> <Gold.PLP.part.buried>
-6.1021

> <Gold.PLP.part.nonpolar>
-38.0251

> <Gold.PLP.part.repulsive>
4.0523

> <Gold.PLP.ligand.clash>
0.0000

> <Gold.PLP.ligand.torsion>
0.6236

> <Gold.PLP.Chemscore.Hbond>
0.0000

> <Gold.PLP.Chemscore.CHOScore>
0.0000

> <Gold.PLP.Chemscore.Metal>
0.0000

> <Gold.PLP.Chemscore.Internal.Correction>
0.0076

