#       Name:                acide_i001
#       Creating user name   fsindt
#       Creation time:       Fri Aug 11 18:08:43 2023


#       File generated by GOLD software.
#

@<TRIPOS>MOLECULE
acide_i001|acide|mol2|1|dock9
    25    25     1
SMALL
NO_CHARGES


@<TRIPOS>ATOM
      1 C1          -0.1085 -16.0264  11.8384 C.3            1 <1>                0.0000
      2 C2          -0.4652 -14.5761  12.1707 C.3            1 <1>                0.0000
      3 C3          -0.3454 -13.7319  10.9281 C.ar           1 <1>                0.0000
      4 C4           0.2041 -14.2712   9.7798 C.ar           1 <1>                0.0000
      5 C5           0.3204 -13.5083   8.6315 C.ar           1 <1>                0.0000
      6 Cl6          1.0125 -14.2022   7.1986 Cl             1 <1>                0.0000
      7 C7          -0.1139 -12.1923   8.6210 C.ar           1 <1>                0.0000
      8 O8           0.0008 -11.4463   7.4939 O.3            1 <1>                0.0000
      9 C9           1.3211 -11.2252   6.9939 C.3            1 <1>                0.0000
     10 C10         -0.6736 -11.6343   9.7819 C.ar           1 <1>                0.0000
     11 C11         -1.1376 -10.2414   9.7836 C.2            1 <1>                0.0000
     12 O12         -1.3471  -9.6649   8.7245 O.co2          1 <1>                0.0000
     13 O13         -1.3147  -9.6567  10.8441 O.co2          1 <1>                0.0000
     14 C14         -0.7916 -12.4207  10.9395 C.ar           1 <1>                0.0000
     15 O15         -1.3307 -11.8948  12.0675 O.3            1 <1>                0.0000
     16 H16         -0.1951 -16.6370  12.7372 H              1 <1>                0.0000
     17 H17         -0.7909 -16.4028  11.0763 H              1 <1>                0.0000
     18 H18          0.9145 -16.0725  11.4650 H              1 <1>                0.0000
     19 H19         -1.4881 -14.5300  12.5442 H              1 <1>                0.0000
     20 H20          0.2171 -14.1996  12.9328 H              1 <1>                0.0000
     21 H21          0.5455 -15.2958   9.7792 H              1 <1>                0.0000
     22 H22          1.2706 -10.6157   6.0916 H              1 <1>                0.0000
     23 H23          1.9136 -10.7082   7.7488 H              1 <1>                0.0000
     24 H24          1.7863 -12.1828   6.7599 H              1 <1>                0.0000
     25 H25         -2.0138 -11.2303  11.9042 H              1 <1>                0.0000
@<TRIPOS>BOND
    1    1    2 1     
    2    1   16 1     
    3    1   17 1     
    4    1   18 1     
    5    2    3 1     
    6    2   19 1     
    7    2   20 1     
    8    3   14 ar    
    9    3    4 ar    
   10    4    5 ar    
   11    4   21 1     
   12    5    6 1     
   13    5    7 ar    
   14    7    8 1     
   15    7   10 ar    
   16    8    9 1     
   17    9   22 1     
   18    9   23 1     
   19    9   24 1     
   20   10   11 1     
   21   10   14 ar    
   22   11   12 ar    
   23   11   13 ar    
   24   14   15 1     
   25   15   25 1     
@<TRIPOS>SUBSTRUCTURE
      1 ****           1
@<TRIPOS>SET
DONOR_HYDROGENS      STATIC     ATOMS    <user>   **** ""
1 25
ATOM$RED        STATIC     ATOMS    COLORGROUP SYSTEM
1 25
@<TRIPOS>COMMENT
> <Gold.Version>
2022.2.0

> <Gold.Id.Protein>
3pbl|protein|mol2

> <Gold.Protein.RotatedTorsions>
[ 1303 1298 1297 1294 ] final   87.54 input  179.99 | X-H torsion
[ 2461 2456 2455 2452 ] final -110.31 input   30.03 | X-H torsion
[ 2515 2510 2509 2506 ] final   -5.31 input  -89.99 | X-H torsion
[ 3721 3712 3711 3710 ] final   19.73 input -179.91 | X-H torsion
[ 3841 3832 3831 3830 ] final   57.92 input -179.91 | X-H torsion
[ 3767 3762 3761 3758 ] final  151.97 input  -89.99 | X-H torsion
[ 2472 2467 2466 2463 ] final  146.57 input  -89.97 | X-H torsion

> <Gold.Protein.ActiveResidues>
 VAL82   VAL86   LEU89   PHE106  VAL107  ASP110  VAL111  MET112  CYS114  THR115 
 CYS181  SER182  ILE183  PHE188  VAL189  ILE190  SER192  SER193  SER196  TRP342 
 PHE345  PHE346  HIS349  VAL350  TYR365  THR369  GLY372  TYR373 

> <Gold.Protein.RotatedAtoms>
    4.3829  -10.1412    4.8443 H   0  0  0  0  0  0  0  0  0  0  0  0  # atno 1303 bound_to 1298
    0.4802   -9.1021    7.9477 H   0  0  0  0  0  0  0  0  0  0  0  0  # atno 2461 bound_to 2456
   -5.5099   -5.2280    8.5272 H   0  0  0  0  0  0  0  0  0  0  0  0  # atno 2472 bound_to 2467
    2.5764   -7.6875    4.5537 H   0  0  0  0  0  0  0  0  0  0  0  0  # atno 2515 bound_to 2510
   -2.4707  -18.0295   13.9551 H   0  0  0  0  0  0  0  0  0  0  0  0  # atno 3721 bound_to 3712
   -3.9241  -22.8746   11.3160 H   0  0  0  0  0  0  0  0  0  0  0  0  # atno 3767 bound_to 3762
    2.4426  -20.9379    9.5254 H   0  0  0  0  0  0  0  0  0  0  0  0  # atno 3841 bound_to 3832
    3.3431   -9.3939    3.8311 LP  0  0  0  0  0  0  0  0  0  0  0  0  # atno 4297 bound_to 1298
    4.6360   -8.5859    4.4160 LP  0  0  0  0  0  0  0  0  0  0  0  0  # atno 4298 bound_to 1298
    2.0632   -8.7603    8.1588 LP  0  0  0  0  0  0  0  0  0  0  0  0  # atno 4299 bound_to 2456
    1.1941   -7.9458    7.0417 LP  0  0  0  0  0  0  0  0  0  0  0  0  # atno 4300 bound_to 2456
    2.6867   -9.2292    5.0799 LP  0  0  0  0  0  0  0  0  0  0  0  0  # atno 4301 bound_to 2510
    2.0336   -8.0827    6.0420 LP  0  0  0  0  0  0  0  0  0  0  0  0  # atno 4302 bound_to 2510
   -3.3117  -16.8747   14.6879 LP  0  0  0  0  0  0  0  0  0  0  0  0  # atno 4306 bound_to 3712
   -3.3635  -17.0363   13.0638 LP  0  0  0  0  0  0  0  0  0  0  0  0  # atno 4307 bound_to 3712
    1.4680  -19.8567    8.8491 LP  0  0  0  0  0  0  0  0  0  0  0  0  # atno 4314 bound_to 3832
    2.9398  -20.1622    8.2112 LP  0  0  0  0  0  0  0  0  0  0  0  0  # atno 4315 bound_to 3832
   -4.9570  -23.0763   10.0673 LP  0  0  0  0  0  0  0  0  0  0  0  0  # atno 4318 bound_to 3762
   -5.2459  -21.9242   11.1879 LP  0  0  0  0  0  0  0  0  0  0  0  0  # atno 4319 bound_to 3762
   -4.1163   -4.8072    7.7875 LP  0  0  0  0  0  0  0  0  0  0  0  0  # atno 4320 bound_to 2467
   -4.0909   -5.3584    9.3244 LP  0  0  0  0  0  0  0  0  0  0  0  0  # atno 4321 bound_to 2467

> <Gold.Score>
     Score     S(PLP)   S(hbond)     S(cho)   S(metal)  DE(clash)   DE(tors)     intcor
     39.22     -37.97       0.88       0.00       0.00       0.97       0.22       0.01

> <Gold.PLP.Fitness>
39.2180

> <Gold.PLP.PLP>
-37.9668

> <Gold.PLP.part.hbond>
-2.6941

> <Gold.PLP.part.metal>
0.0000

> <Gold.PLP.part.buried>
1.8628

> <Gold.PLP.part.nonpolar>
-38.7768

> <Gold.PLP.part.repulsive>
0.2086

> <Gold.PLP.ligand.clash>
0.9663

> <Gold.PLP.ligand.torsion>
0.2150

> <Gold.PLP.Chemscore.Hbond>
0.8800

> <Gold.PLP.Chemscore.CHOScore>
0.0000

> <Gold.PLP.Chemscore.Metal>
0.0000

> <Gold.Chemscore.Hbonds>
donor molecule, donor type, donor heavy atom, donor atom, acceptor molecule, acceptor atom, score
      P1  H  2456  2461       L1    12  0.88

> <Gold.PLP.Chemscore.Internal.Correction>
0.0076

