#       Name:                acide_i001
#       Creating user name   fsindt
#       Creation time:       Fri Aug 11 18:08:41 2023


#       File generated by GOLD software.
#

@<TRIPOS>MOLECULE
acide_i001|acide|mol2|1|dock6
    25    25     1
SMALL
NO_CHARGES


@<TRIPOS>ATOM
      1 C1          -2.7690  -9.8933   9.7153 C.3            1 <1>                0.0000
      2 C2          -1.5486 -10.1581  10.5992 C.3            1 <1>                0.0000
      3 C3          -0.9366 -11.4838  10.2268 C.ar           1 <1>                0.0000
      4 C4          -0.9512 -12.5277  11.1332 C.ar           1 <1>                0.0000
      5 C5          -0.3932 -13.7505  10.8053 C.ar           1 <1>                0.0000
      6 Cl6         -0.4211 -15.0502  11.9558 Cl             1 <1>                0.0000
      7 C7           0.1876 -13.9417   9.5616 C.ar           1 <1>                0.0000
      8 O8           0.7337 -15.1415   9.2422 O.3            1 <1>                0.0000
      9 C9          -0.1042 -16.0735   8.5557 C.3            1 <1>                0.0000
     10 C10          0.2080 -12.8881   8.6332 C.ar           1 <1>                0.0000
     11 C11          0.8202 -13.0778   7.3123 C.2            1 <1>                0.0000
     12 O12          1.1677 -14.1952   6.9538 O.co2          1 <1>                0.0000
     13 O13          0.9831 -12.1187   6.5699 O.co2          1 <1>                0.0000
     14 C14         -0.3668 -11.6533   8.9758 C.ar           1 <1>                0.0000
     15 O15         -0.3546 -10.6274   8.0887 O.3            1 <1>                0.0000
     16 H16         -3.2118  -8.9344   9.9847 H              1 <1>                0.0000
     17 H17         -2.4622  -9.8709   8.6696 H              1 <1>                0.0000
     18 H18         -3.5026 -10.6862   9.8617 H              1 <1>                0.0000
     19 H19         -0.8151  -9.3652  10.4528 H              1 <1>                0.0000
     20 H20         -1.8555 -10.1805  11.6449 H              1 <1>                0.0000
     21 H21         -1.4014 -12.3874  12.1048 H              1 <1>                0.0000
     22 H22          0.4541 -16.9892   8.3610 H              1 <1>                0.0000
     23 H23         -0.9740 -16.3022   9.1715 H              1 <1>                0.0000
     24 H24         -0.4319 -15.6399   7.6107 H              1 <1>                0.0000
     25 H25         -1.2342 -10.3323   7.8164 H              1 <1>                0.0000
@<TRIPOS>BOND
    1    1    2 1     
    2    1   16 1     
    3    1   17 1     
    4    1   18 1     
    5    2    3 1     
    6    2   19 1     
    7    2   20 1     
    8    3   14 ar    
    9    3    4 ar    
   10    4    5 ar    
   11    4   21 1     
   12    5    6 1     
   13    5    7 ar    
   14    7    8 1     
   15    7   10 ar    
   16    8    9 1     
   17    9   22 1     
   18    9   23 1     
   19    9   24 1     
   20   10   11 1     
   21   10   14 ar    
   22   11   12 ar    
   23   11   13 ar    
   24   14   15 1     
   25   15   25 1     
@<TRIPOS>SUBSTRUCTURE
      1 ****           1
@<TRIPOS>SET
DONOR_HYDROGENS      STATIC     ATOMS    <user>   **** ""
1 25
ATOM$RED        STATIC     ATOMS    COLORGROUP SYSTEM
1 25
@<TRIPOS>COMMENT
> <Gold.Version>
2022.2.0

> <Gold.Id.Protein>
3pbl|protein|mol2

> <Gold.Protein.RotatedTorsions>
[ 1303 1298 1297 1294 ] final  -90.43 input  179.99 | X-H torsion
[ 2461 2456 2455 2452 ] final -132.44 input   30.03 | X-H torsion
[ 2515 2510 2509 2506 ] final  113.17 input  -89.99 | X-H torsion
[ 3721 3712 3711 3710 ] final -176.69 input -179.91 | X-H torsion
[ 3841 3832 3831 3830 ] final   -3.54 input -179.91 | X-H torsion
[ 3767 3762 3761 3758 ] final   11.47 input  -89.99 | X-H torsion
[ 2472 2467 2466 2463 ] final -173.38 input  -89.97 | X-H torsion

> <Gold.Protein.ActiveResidues>
 VAL82   VAL86   LEU89   PHE106  VAL107  ASP110  VAL111  MET112  CYS114  THR115 
 CYS181  SER182  ILE183  PHE188  VAL189  ILE190  SER192  SER193  SER196  TRP342 
 PHE345  PHE346  HIS349  VAL350  TYR365  THR369  GLY372  TYR373 

> <Gold.Protein.RotatedAtoms>
    3.8319   -8.6231    3.8723 H   0  0  0  0  0  0  0  0  0  0  0  0  # atno 1303 bound_to 1298
    0.7257   -9.2425    8.1737 H   0  0  0  0  0  0  0  0  0  0  0  0  # atno 2461 bound_to 2456
   -5.2805   -5.4101    9.1027 H   0  0  0  0  0  0  0  0  0  0  0  0  # atno 2472 bound_to 2467
    2.0323   -8.0592    6.0333 H   0  0  0  0  0  0  0  0  0  0  0  0  # atno 2515 bound_to 2510
   -3.3281  -16.5894   13.5929 H   0  0  0  0  0  0  0  0  0  0  0  0  # atno 3721 bound_to 3712
   -5.2082  -22.8550   10.0907 H   0  0  0  0  0  0  0  0  0  0  0  0  # atno 3767 bound_to 3762
    1.7073  -20.4459    9.5402 H   0  0  0  0  0  0  0  0  0  0  0  0  # atno 3841 bound_to 3832
    4.9032   -9.3220    4.8873 LP  0  0  0  0  0  0  0  0  0  0  0  0  # atno 4297 bound_to 1298
    3.6272  -10.1765    4.3321 LP  0  0  0  0  0  0  0  0  0  0  0  0  # atno 4298 bound_to 1298
    2.1582   -8.4973    7.9291 LP  0  0  0  0  0  0  0  0  0  0  0  0  # atno 4299 bound_to 2456
    0.8536   -8.0686    7.0455 LP  0  0  0  0  0  0  0  0  0  0  0  0  # atno 4300 bound_to 2456
    2.5863   -7.7052    4.5388 LP  0  0  0  0  0  0  0  0  0  0  0  0  # atno 4301 bound_to 2510
    2.6783   -9.2349    5.1027 LP  0  0  0  0  0  0  0  0  0  0  0  0  # atno 4302 bound_to 2510
   -2.7520  -18.0634   13.3221 LP  0  0  0  0  0  0  0  0  0  0  0  0  # atno 4306 bound_to 3712
   -2.9334  -17.5101   14.8477 LP  0  0  0  0  0  0  0  0  0  0  0  0  # atno 4307 bound_to 3712
    2.1981  -19.6659    8.2262 LP  0  0  0  0  0  0  0  0  0  0  0  0  # atno 4314 bound_to 3832
    3.0591  -20.9213    8.8171 LP  0  0  0  0  0  0  0  0  0  0  0  0  # atno 4315 bound_to 3832
   -5.0033  -21.9279   11.4194 LP  0  0  0  0  0  0  0  0  0  0  0  0  # atno 4318 bound_to 3762
   -3.9160  -23.0922   11.0607 LP  0  0  0  0  0  0  0  0  0  0  0  0  # atno 4319 bound_to 3762
   -4.7506   -4.8345    7.6695 LP  0  0  0  0  0  0  0  0  0  0  0  0  # atno 4320 bound_to 2467
   -3.6859   -5.1490    8.8670 LP  0  0  0  0  0  0  0  0  0  0  0  0  # atno 4321 bound_to 2467

> <Gold.Score>
     Score     S(PLP)   S(hbond)     S(cho)   S(metal)  DE(clash)   DE(tors)     intcor
     47.38     -45.24       1.00       0.00       0.00       0.00       0.43       0.01

> <Gold.PLP.Fitness>
47.3788

> <Gold.PLP.PLP>
-45.2358

> <Gold.PLP.part.hbond>
-1.0000

> <Gold.PLP.part.metal>
0.0000

> <Gold.PLP.part.buried>
-4.6433

> <Gold.PLP.part.nonpolar>
-41.0940

> <Gold.PLP.part.repulsive>
0.7380

> <Gold.PLP.ligand.clash>
0.0000

> <Gold.PLP.ligand.torsion>
0.4323

> <Gold.PLP.Chemscore.Hbond>
1.0000

> <Gold.PLP.Chemscore.CHOScore>
0.0000

> <Gold.PLP.Chemscore.Metal>
0.0000

> <Gold.Chemscore.Hbonds>
donor molecule, donor type, donor heavy atom, donor atom, acceptor molecule, acceptor atom, score
      P1  H  2456  2461       L1    15  1.00

> <Gold.PLP.Chemscore.Internal.Correction>
0.0076

