#       Name:                acide_i001
#       Creating user name   fsindt
#       Creation time:       Fri Aug 11 18:08:51 2023


#       File generated by GOLD software.
#

@<TRIPOS>MOLECULE
acide_i001|acide|mol2|1|dock18
    25    25     1
SMALL
NO_CHARGES


@<TRIPOS>ATOM
      1 C1          -0.7002 -15.8164  12.4553 C.3            1 <1>                0.0000
      2 C2           0.4187 -15.1902  11.6207 C.3            1 <1>                0.0000
      3 C3          -0.0643 -13.8927  11.0256 C.ar           1 <1>                0.0000
      4 C4          -0.8559 -13.0435  11.7764 C.ar           1 <1>                0.0000
      5 C5          -1.3068 -11.8490  11.2435 C.ar           1 <1>                0.0000
      6 Cl6         -2.2996 -10.7948  12.2010 Cl             1 <1>                0.0000
      7 C7          -0.9684 -11.4908   9.9482 C.ar           1 <1>                0.0000
      8 O8          -1.4112 -10.3190   9.4279 O.3            1 <1>                0.0000
      9 C9          -2.8256 -10.1578   9.3036 C.3            1 <1>                0.0000
     10 C10         -0.1647 -12.3459   9.1766 C.ar           1 <1>                0.0000
     11 C11          0.2009 -11.9779   7.8031 C.2            1 <1>                0.0000
     12 O12          0.3617 -10.8013   7.5071 O.co2          1 <1>                0.0000
     13 O13          0.3448 -12.8476   6.9542 O.co2          1 <1>                0.0000
     14 C14          0.2914 -13.5530   9.7308 C.ar           1 <1>                0.0000
     15 O15          1.0687 -14.3880   8.9971 O.3            1 <1>                0.0000
     16 H16         -0.3509 -16.7550  12.8856 H              1 <1>                0.0000
     17 H17         -0.9827 -15.1326  13.2557 H              1 <1>                0.0000
     18 H18         -1.5644 -16.0079  11.8191 H              1 <1>                0.0000
     19 H19          1.2829 -14.9989  12.2568 H              1 <1>                0.0000
     20 H20          0.7012 -15.8741  10.8202 H              1 <1>                0.0000
     21 H21         -1.1248 -13.3149  12.7865 H              1 <1>                0.0000
     22 H22         -3.0435  -9.1795   8.8752 H              1 <1>                0.0000
     23 H23         -3.2242 -10.9362   8.6530 H              1 <1>                0.0000
     24 H24         -3.2880 -10.2347  10.2877 H              1 <1>                0.0000
     25 H25          1.3570 -15.1780   9.4744 H              1 <1>                0.0000
@<TRIPOS>BOND
    1    1    2 1     
    2    1   16 1     
    3    1   17 1     
    4    1   18 1     
    5    2    3 1     
    6    2   19 1     
    7    2   20 1     
    8    3   14 ar    
    9    3    4 ar    
   10    4    5 ar    
   11    4   21 1     
   12    5    6 1     
   13    5    7 ar    
   14    7    8 1     
   15    7   10 ar    
   16    8    9 1     
   17    9   22 1     
   18    9   23 1     
   19    9   24 1     
   20   10   11 1     
   21   10   14 ar    
   22   11   12 ar    
   23   11   13 ar    
   24   14   15 1     
   25   15   25 1     
@<TRIPOS>SUBSTRUCTURE
      1 ****           1
@<TRIPOS>SET
DONOR_HYDROGENS      STATIC     ATOMS    <user>   **** ""
1 25
ATOM$RED        STATIC     ATOMS    COLORGROUP SYSTEM
1 25
@<TRIPOS>COMMENT
> <Gold.Version>
2022.2.0

> <Gold.Id.Protein>
3pbl|protein|mol2

> <Gold.Protein.RotatedTorsions>
[ 1303 1298 1297 1294 ] final  134.05 input  179.99 | X-H torsion
[ 2461 2456 2455 2452 ] final -123.76 input   30.03 | X-H torsion
[ 2515 2510 2509 2506 ] final  -99.20 input  -89.99 | X-H torsion
[ 3721 3712 3711 3710 ] final -113.39 input -179.91 | X-H torsion
[ 3841 3832 3831 3830 ] final   45.77 input -179.91 | X-H torsion
[ 3767 3762 3761 3758 ] final   92.00 input  -89.99 | X-H torsion
[ 2472 2467 2466 2463 ] final  142.00 input  -89.97 | X-H torsion

> <Gold.Protein.ActiveResidues>
 VAL82   VAL86   LEU89   PHE106  VAL107  ASP110  VAL111  MET112  CYS114  THR115 
 CYS181  SER182  ILE183  PHE188  VAL189  ILE190  SER192  SER193  SER196  TRP342 
 PHE345  PHE346  HIS349  VAL350  TYR365  THR369  GLY372  TYR373 

> <Gold.Protein.RotatedAtoms>
    4.8426   -9.5636    4.9396 H   0  0  0  0  0  0  0  0  0  0  0  0  # atno 1303 bound_to 1298
    0.6180   -9.1979    8.0914 H   0  0  0  0  0  0  0  0  0  0  0  0  # atno 2461 bound_to 2456
   -5.5081   -5.2023    8.4566 H   0  0  0  0  0  0  0  0  0  0  0  0  # atno 2472 bound_to 2467
    2.7986   -9.0370    4.7168 H   0  0  0  0  0  0  0  0  0  0  0  0  # atno 2515 bound_to 2510
   -3.1807  -16.7086   14.4819 H   0  0  0  0  0  0  0  0  0  0  0  0  # atno 3721 bound_to 3712
   -4.1717  -23.3258   10.5263 H   0  0  0  0  0  0  0  0  0  0  0  0  # atno 3767 bound_to 3762
    2.2762  -20.8888    9.5845 H   0  0  0  0  0  0  0  0  0  0  0  0  # atno 3841 bound_to 3832
    3.4796  -10.0392    4.1763 LP  0  0  0  0  0  0  0  0  0  0  0  0  # atno 4297 bound_to 1298
    4.0397   -8.5185    3.9755 LP  0  0  0  0  0  0  0  0  0  0  0  0  # atno 4298 bound_to 1298
    2.1367   -8.6007    8.0250 LP  0  0  0  0  0  0  0  0  0  0  0  0  # atno 4299 bound_to 2456
    0.9829   -8.0098    7.0319 LP  0  0  0  0  0  0  0  0  0  0  0  0  # atno 4300 bound_to 2456
    2.1023   -8.4999    6.0924 LP  0  0  0  0  0  0  0  0  0  0  0  0  # atno 4301 bound_to 2510
    2.3957   -7.4619    4.8663 LP  0  0  0  0  0  0  0  0  0  0  0  0  # atno 4302 bound_to 2510
   -3.2438  -17.2590   12.9749 LP  0  0  0  0  0  0  0  0  0  0  0  0  # atno 4306 bound_to 3712
   -2.6117  -18.1769   14.1685 LP  0  0  0  0  0  0  0  0  0  0  0  0  # atno 4307 bound_to 3712
    1.5616  -19.7556    8.7005 LP  0  0  0  0  0  0  0  0  0  0  0  0  # atno 4314 bound_to 3832
    3.0384  -20.3200    8.2916 LP  0  0  0  0  0  0  0  0  0  0  0  0  # atno 4315 bound_to 3832
   -5.4937  -22.3757   10.3976 LP  0  0  0  0  0  0  0  0  0  0  0  0  # atno 4318 bound_to 3762
   -4.4617  -22.1739   11.6470 LP  0  0  0  0  0  0  0  0  0  0  0  0  # atno 4319 bound_to 3762
   -4.0525   -4.8143    7.8265 LP  0  0  0  0  0  0  0  0  0  0  0  0  # atno 4320 bound_to 2467
   -4.1565   -5.3769    9.3560 LP  0  0  0  0  0  0  0  0  0  0  0  0  # atno 4321 bound_to 2467

> <Gold.Score>
     Score     S(PLP)   S(hbond)     S(cho)   S(metal)  DE(clash)   DE(tors)     intcor
     36.25     -35.12       0.86       0.00       0.00       0.00       0.74       0.01

> <Gold.PLP.Fitness>
36.2490

> <Gold.PLP.PLP>
-35.1201

> <Gold.PLP.part.hbond>
-0.9809

> <Gold.PLP.part.metal>
0.0000

> <Gold.PLP.part.buried>
-4.1626

> <Gold.PLP.part.nonpolar>
-30.0924

> <Gold.PLP.part.repulsive>
0.0639

> <Gold.PLP.ligand.clash>
0.0000

> <Gold.PLP.ligand.torsion>
0.7354

> <Gold.PLP.Chemscore.Hbond>
0.8640

> <Gold.PLP.Chemscore.CHOScore>
0.0000

> <Gold.PLP.Chemscore.Metal>
0.0000

> <Gold.Chemscore.Hbonds>
donor molecule, donor type, donor heavy atom, donor atom, acceptor molecule, acceptor atom, score
      P1  H  2456  2461       L1    12  0.86

> <Gold.PLP.Chemscore.Internal.Correction>
0.0076

