#       Name:                acide_i001
#       Creating user name   fsindt
#       Creation time:       Fri Aug 11 18:08:40 2023


#       File generated by GOLD software.
#

@<TRIPOS>MOLECULE
acide_i001|acide|mol2|1|dock5
    25    25     1
SMALL
NO_CHARGES


@<TRIPOS>ATOM
      1 C1          -2.1896  -9.6000   9.6007 C.3            1 <1>                0.0000
      2 C2          -2.2267 -10.8491  10.4833 C.3            1 <1>                0.0000
      3 C3          -1.2317 -11.8573   9.9693 C.ar           1 <1>                0.0000
      4 C4          -0.7351 -11.7411   8.6842 C.ar           1 <1>                0.0000
      5 C5           0.1789 -12.6590   8.1986 C.ar           1 <1>                0.0000
      6 Cl6          0.7922 -12.4970   6.5826 Cl             1 <1>                0.0000
      7 C7           0.6071 -13.7073   8.9977 C.ar           1 <1>                0.0000
      8 O8           1.5036 -14.6059   8.5196 O.3            1 <1>                0.0000
      9 C9           1.1074 -15.3754   7.3825 C.3            1 <1>                0.0000
     10 C10          0.1091 -13.8351  10.3047 C.ar           1 <1>                0.0000
     11 C11          0.5548 -14.9411  11.1612 C.2            1 <1>                0.0000
     12 O12         -0.2560 -15.5474  11.8489 O.co2          1 <1>                0.0000
     13 O13          1.7369 -15.2566  11.1877 O.co2          1 <1>                0.0000
     14 C14         -0.8140 -12.8935  10.7881 C.ar           1 <1>                0.0000
     15 O15         -1.3027 -13.0045  12.0485 O.3            1 <1>                0.0000
     16 H16         -2.9094  -8.8708   9.9724 H              1 <1>                0.0000
     17 H17         -1.1892  -9.1678   9.6245 H              1 <1>                0.0000
     18 H18         -2.4438  -9.8715   8.5760 H              1 <1>                0.0000
     19 H19         -1.9727 -10.5777  11.5079 H              1 <1>                0.0000
     20 H20         -3.2272 -11.2813  10.4595 H              1 <1>                0.0000
     21 H21         -1.0635 -10.9275   8.0545 H              1 <1>                0.0000
     22 H22          1.9142 -16.0532   7.1034 H              1 <1>                0.0000
     23 H23          0.2160 -15.9529   7.6272 H              1 <1>                0.0000
     24 H24          0.8899 -14.7070   6.5493 H              1 <1>                0.0000
     25 H25         -1.3823 -13.9162  12.3606 H              1 <1>                0.0000
@<TRIPOS>BOND
    1    1    2 1     
    2    1   16 1     
    3    1   17 1     
    4    1   18 1     
    5    2    3 1     
    6    2   19 1     
    7    2   20 1     
    8    3   14 ar    
    9    3    4 ar    
   10    4    5 ar    
   11    4   21 1     
   12    5    6 1     
   13    5    7 ar    
   14    7    8 1     
   15    7   10 ar    
   16    8    9 1     
   17    9   22 1     
   18    9   23 1     
   19    9   24 1     
   20   10   11 1     
   21   10   14 ar    
   22   11   12 ar    
   23   11   13 ar    
   24   14   15 1     
   25   15   25 1     
@<TRIPOS>SUBSTRUCTURE
      1 ****           1
@<TRIPOS>SET
DONOR_HYDROGENS      STATIC     ATOMS    <user>   **** ""
1 25
ATOM$RED        STATIC     ATOMS    COLORGROUP SYSTEM
1 25
@<TRIPOS>COMMENT
> <Gold.Version>
2022.2.0

> <Gold.Id.Protein>
3pbl|protein|mol2

> <Gold.Protein.RotatedTorsions>
[ 1303 1298 1297 1294 ] final -107.93 input  179.99 | X-H torsion
[ 2461 2456 2455 2452 ] final  151.08 input   30.03 | X-H torsion
[ 2515 2510 2509 2506 ] final   30.27 input  -89.99 | X-H torsion
[ 3721 3712 3711 3710 ] final   93.03 input -179.91 | X-H torsion
[ 3841 3832 3831 3830 ] final -170.59 input -179.91 | X-H torsion
[ 3767 3762 3761 3758 ] final -121.66 input  -89.99 | X-H torsion
[ 2472 2467 2466 2463 ] final  121.01 input  -89.97 | X-H torsion

> <Gold.Protein.ActiveResidues>
 VAL82   VAL86   LEU89   PHE106  VAL107  ASP110  VAL111  MET112  CYS114  THR115 
 CYS181  SER182  ILE183  PHE188  VAL189  ILE190  SER192  SER193  SER196  TRP342 
 PHE345  PHE346  HIS349  VAL350  TYR365  THR369  GLY372  TYR373 

> <Gold.Protein.RotatedAtoms>
    4.0667   -8.5096    3.9914 H   0  0  0  0  0  0  0  0  0  0  0  0  # atno 1303 bound_to 1298
    1.8568   -8.9931    8.3193 H   0  0  0  0  0  0  0  0  0  0  0  0  # atno 2461 bound_to 2456
   -5.4245   -5.0813    8.1462 H   0  0  0  0  0  0  0  0  0  0  0  0  # atno 2472 bound_to 2467
    2.3302   -7.4230    5.0021 H   0  0  0  0  0  0  0  0  0  0  0  0  # atno 2515 bound_to 2510
   -2.8061  -17.5790   13.0868 H   0  0  0  0  0  0  0  0  0  0  0  0  # atno 3721 bound_to 3712
   -4.8257  -21.9766   11.5316 H   0  0  0  0  0  0  0  0  0  0  0  0  # atno 3767 bound_to 3762
    2.8687  -19.9462    8.3737 H   0  0  0  0  0  0  0  0  0  0  0  0  # atno 3841 bound_to 3832
    4.8314   -9.5941    4.9430 LP  0  0  0  0  0  0  0  0  0  0  0  0  # atno 4297 bound_to 1298
    3.4641  -10.0181    4.1573 LP  0  0  0  0  0  0  0  0  0  0  0  0  # atno 4298 bound_to 1298
    1.5310   -7.9192    7.1327 LP  0  0  0  0  0  0  0  0  0  0  0  0  # atno 4299 bound_to 2456
    0.3501   -8.8961    7.6964 LP  0  0  0  0  0  0  0  0  0  0  0  0  # atno 4300 bound_to 2456
    2.8215   -8.9291    4.6069 LP  0  0  0  0  0  0  0  0  0  0  0  0  # atno 4301 bound_to 2510
    2.1451   -8.6474    6.0663 LP  0  0  0  0  0  0  0  0  0  0  0  0  # atno 4302 bound_to 2510
   -2.7450  -17.8671   14.6651 LP  0  0  0  0  0  0  0  0  0  0  0  0  # atno 4306 bound_to 3712
   -3.5429  -16.5640   14.0891 LP  0  0  0  0  0  0  0  0  0  0  0  0  # atno 4307 bound_to 3712
    2.5126  -21.1564    9.3660 LP  0  0  0  0  0  0  0  0  0  0  0  0  # atno 4314 bound_to 3832
    1.4030  -20.0080    9.0248 LP  0  0  0  0  0  0  0  0  0  0  0  0  # atno 4315 bound_to 3832
   -3.9636  -23.2016   10.8812 LP  0  0  0  0  0  0  0  0  0  0  0  0  # atno 4318 bound_to 3762
   -5.3381  -22.6967   10.1584 LP  0  0  0  0  0  0  0  0  0  0  0  0  # atno 4319 bound_to 3762
   -3.8074   -4.8716    8.0602 LP  0  0  0  0  0  0  0  0  0  0  0  0  # atno 4320 bound_to 2467
   -4.4851   -5.4407    9.4326 LP  0  0  0  0  0  0  0  0  0  0  0  0  # atno 4321 bound_to 2467

> <Gold.Score>
     Score     S(PLP)   S(hbond)     S(cho)   S(metal)  DE(clash)   DE(tors)     intcor
     42.24     -44.24       0.00       0.00       0.00       0.15       0.93       0.01

> <Gold.PLP.Fitness>
42.2369

> <Gold.PLP.PLP>
-44.2372

> <Gold.PLP.part.hbond>
-1.0000

> <Gold.PLP.part.metal>
0.0000

> <Gold.PLP.part.buried>
-2.6641

> <Gold.PLP.part.nonpolar>
-42.2589

> <Gold.PLP.part.repulsive>
1.7829

> <Gold.PLP.ligand.clash>
0.1505

> <Gold.PLP.ligand.torsion>
0.9287

> <Gold.PLP.Chemscore.Hbond>
0.0000

> <Gold.PLP.Chemscore.CHOScore>
0.0000

> <Gold.PLP.Chemscore.Metal>
0.0000

> <Gold.PLP.Chemscore.Internal.Correction>
0.0076

