#       Name:                acide_i001
#       Creating user name   fsindt
#       Creation time:       Fri Aug 11 18:08:49 2023


#       File generated by GOLD software.
#

@<TRIPOS>MOLECULE
acide_i001|acide|mol2|1|dock15
    25    25     1
SMALL
NO_CHARGES


@<TRIPOS>ATOM
      1 C1          -3.6663 -10.5355  10.4988 C.3            1 <1>                0.0000
      2 C2          -2.2023 -10.1086  10.3752 C.3            1 <1>                0.0000
      3 C3          -1.3361 -11.3293  10.2006 C.ar           1 <1>                0.0000
      4 C4          -1.2977 -12.2936  11.1906 C.ar           1 <1>                0.0000
      5 C5          -0.5072 -13.4195  11.0443 C.ar           1 <1>                0.0000
      6 Cl6         -0.4718 -14.6203  12.2976 Cl             1 <1>                0.0000
      7 C7           0.2563 -13.5924   9.9007 C.ar           1 <1>                0.0000
      8 O8           1.0303 -14.6973   9.7593 O.3            1 <1>                0.0000
      9 C9           2.0703 -14.8882  10.7205 C.3            1 <1>                0.0000
     10 C10          0.2250 -12.6191   8.8887 C.ar           1 <1>                0.0000
     11 C11          1.0291 -12.7905   7.6724 C.2            1 <1>                0.0000
     12 O12          1.3357 -11.8155   6.9991 O.co2          1 <1>                0.0000
     13 O13          1.3927 -13.9083   7.3317 O.co2          1 <1>                0.0000
     14 C14         -0.5859 -11.4833   9.0465 C.ar           1 <1>                0.0000
     15 O15         -0.6262 -10.5358   8.0769 O.3            1 <1>                0.0000
     16 H16         -4.2929  -9.6525  10.6251 H              1 <1>                0.0000
     17 H17         -3.9668 -11.0682   9.5965 H              1 <1>                0.0000
     18 H18         -3.7823 -11.1899  11.3627 H              1 <1>                0.0000
     19 H19         -2.0863  -9.4541   9.5113 H              1 <1>                0.0000
     20 H20         -1.9018  -9.5759  11.2775 H              1 <1>                0.0000
     21 H21         -1.8892 -12.1668  12.0853 H              1 <1>                0.0000
     22 H22          2.6118 -15.8063  10.4925 H              1 <1>                0.0000
     23 H23          2.7574 -14.0428  10.6851 H              1 <1>                0.0000
     24 H24          1.6350 -14.9611  11.7172 H              1 <1>                0.0000
     25 H25          0.0988  -9.8973   8.1205 H              1 <1>                0.0000
@<TRIPOS>BOND
    1    1    2 1     
    2    1   16 1     
    3    1   17 1     
    4    1   18 1     
    5    2    3 1     
    6    2   19 1     
    7    2   20 1     
    8    3   14 ar    
    9    3    4 ar    
   10    4    5 ar    
   11    4   21 1     
   12    5    6 1     
   13    5    7 ar    
   14    7    8 1     
   15    7   10 ar    
   16    8    9 1     
   17    9   22 1     
   18    9   23 1     
   19    9   24 1     
   20   10   11 1     
   21   10   14 ar    
   22   11   12 ar    
   23   11   13 ar    
   24   14   15 1     
   25   15   25 1     
@<TRIPOS>SUBSTRUCTURE
      1 ****           1
@<TRIPOS>SET
DONOR_HYDROGENS      STATIC     ATOMS    <user>   **** ""
1 25
ATOM$RED        STATIC     ATOMS    COLORGROUP SYSTEM
1 25
@<TRIPOS>COMMENT
> <Gold.Version>
2022.2.0

> <Gold.Id.Protein>
3pbl|protein|mol2

> <Gold.Protein.RotatedTorsions>
[ 1303 1298 1297 1294 ] final   42.30 input  179.99 | X-H torsion
[ 2461 2456 2455 2452 ] final  117.04 input   30.03 | X-H torsion
[ 2515 2510 2509 2506 ] final   65.84 input  -89.99 | X-H torsion
[ 3721 3712 3711 3710 ] final   62.97 input -179.91 | X-H torsion
[ 3841 3832 3831 3830 ] final   27.66 input -179.91 | X-H torsion
[ 3767 3762 3761 3758 ] final -134.62 input  -89.99 | X-H torsion
[ 2472 2467 2466 2463 ] final  -15.61 input  -89.97 | X-H torsion

> <Gold.Protein.ActiveResidues>
 VAL82   VAL86   LEU89   PHE106  VAL107  ASP110  VAL111  MET112  CYS114  THR115 
 CYS181  SER182  ILE183  PHE188  VAL189  ILE190  SER192  SER193  SER196  TRP342 
 PHE345  PHE346  HIS349  VAL350  TYR365  THR369  GLY372  TYR373 

> <Gold.Protein.RotatedAtoms>
    3.7753  -10.2452    4.4624 H   0  0  0  0  0  0  0  0  0  0  0  0  # atno 1303 bound_to 1298
    2.1339   -8.6103    8.0336 H   0  0  0  0  0  0  0  0  0  0  0  0  # atno 2461 bound_to 2456
   -3.6841   -4.9426    8.2927 H   0  0  0  0  0  0  0  0  0  0  0  0  # atno 2472 bound_to 2467
    2.1222   -7.4983    5.5337 H   0  0  0  0  0  0  0  0  0  0  0  0  # atno 2515 bound_to 2510
   -2.6073  -17.8853   13.3485 H   0  0  0  0  0  0  0  0  0  0  0  0  # atno 3721 bound_to 3712
   -4.6446  -22.0585   11.6081 H   0  0  0  0  0  0  0  0  0  0  0  0  # atno 3767 bound_to 3762
    2.0364  -20.7651    9.6222 H   0  0  0  0  0  0  0  0  0  0  0  0  # atno 3841 bound_to 3832
    3.6770   -8.7502    3.8133 LP  0  0  0  0  0  0  0  0  0  0  0  0  # atno 4297 bound_to 1298
    4.9101   -9.1256    4.8159 LP  0  0  0  0  0  0  0  0  0  0  0  0  # atno 4298 bound_to 1298
    0.9952   -8.0050    7.0314 LP  0  0  0  0  0  0  0  0  0  0  0  0  # atno 4299 bound_to 2456
    0.6089   -9.1929    8.0832 LP  0  0  0  0  0  0  0  0  0  0  0  0  # atno 4300 bound_to 2456
    2.8110   -8.4066    4.3648 LP  0  0  0  0  0  0  0  0  0  0  0  0  # atno 4301 bound_to 2510
    2.3637   -9.0946    5.7766 LP  0  0  0  0  0  0  0  0  0  0  0  0  # atno 4302 bound_to 2510
   -2.9599  -17.4625   14.8567 LP  0  0  0  0  0  0  0  0  0  0  0  0  # atno 4306 bound_to 3712
   -3.5576  -16.6150   13.5953 LP  0  0  0  0  0  0  0  0  0  0  0  0  # atno 4307 bound_to 3712
    1.7575  -19.6591    8.4929 LP  0  0  0  0  0  0  0  0  0  0  0  0  # atno 4314 bound_to 3832
    3.1195  -20.5594    8.4556 LP  0  0  0  0  0  0  0  0  0  0  0  0  # atno 4315 bound_to 3832
   -4.0489  -23.2801   10.7027 LP  0  0  0  0  0  0  0  0  0  0  0  0  # atno 4318 bound_to 3762
   -5.4338  -22.5363   10.2605 LP  0  0  0  0  0  0  0  0  0  0  0  0  # atno 4319 bound_to 3762
   -4.7556   -5.4623    9.4098 LP  0  0  0  0  0  0  0  0  0  0  0  0  # atno 4320 bound_to 2467
   -5.2770   -4.9887    7.9366 LP  0  0  0  0  0  0  0  0  0  0  0  0  # atno 4321 bound_to 2467

> <Gold.Score>
     Score     S(PLP)   S(hbond)     S(cho)   S(metal)  DE(clash)   DE(tors)     intcor
     48.06     -45.51       1.00       0.00       0.00       0.00       0.23       0.01

> <Gold.PLP.Fitness>
48.0627

> <Gold.PLP.PLP>
-45.5098

> <Gold.PLP.part.hbond>
-1.0000

> <Gold.PLP.part.metal>
0.0000

> <Gold.PLP.part.buried>
-1.7632

> <Gold.PLP.part.nonpolar>
-44.1227

> <Gold.PLP.part.repulsive>
0.2918

> <Gold.PLP.ligand.clash>
0.0000

> <Gold.PLP.ligand.torsion>
0.2273

> <Gold.PLP.Chemscore.Hbond>
1.0000

> <Gold.PLP.Chemscore.CHOScore>
0.0000

> <Gold.PLP.Chemscore.Metal>
0.0000

> <Gold.Chemscore.Hbonds>
donor molecule, donor type, donor heavy atom, donor atom, acceptor molecule, acceptor atom, score
      L1  H    15    25       P1  2456  1.00

> <Gold.PLP.Chemscore.Internal.Correction>
0.0076

