#       Name:                acide_i001
#       Creating user name   fsindt
#       Creation time:       Fri Aug 11 18:08:50 2023


#       File generated by GOLD software.
#

@<TRIPOS>MOLECULE
acide_i001|acide|mol2|1|dock16
    25    25     1
SMALL
NO_CHARGES


@<TRIPOS>ATOM
      1 C1          -3.5148 -10.2772   9.8795 C.3            1 <1>                0.0000
      2 C2          -2.0250  -9.9291   9.8662 C.3            1 <1>                0.0000
      3 C3          -1.2182 -11.1822   9.6433 C.ar           1 <1>                0.0000
      4 C4          -0.5530 -11.3689   8.4457 C.ar           1 <1>                0.0000
      5 C5           0.1915 -12.5142   8.2268 C.ar           1 <1>                0.0000
      6 Cl6          1.0206 -12.7314   6.7171 Cl             1 <1>                0.0000
      7 C7           0.2782 -13.4885   9.2086 C.ar           1 <1>                0.0000
      8 O8           1.0091 -14.6105   8.9919 O.3            1 <1>                0.0000
      9 C9           2.2968 -14.6748   9.6080 C.3            1 <1>                0.0000
     10 C10         -0.3935 -13.3093  10.4288 C.ar           1 <1>                0.0000
     11 C11         -0.3096 -14.3340  11.4769 C.2            1 <1>                0.0000
     12 O12         -0.7552 -14.1050  12.5936 O.co2          1 <1>                0.0000
     13 O13          0.2060 -15.4170  11.2340 O.co2          1 <1>                0.0000
     14 C14         -1.1414 -12.1397  10.6412 C.ar           1 <1>                0.0000
     15 O15         -1.7947 -11.9533  11.8152 O.3            1 <1>                0.0000
     16 H16         -4.0984  -9.3708  10.0409 H              1 <1>                0.0000
     17 H17         -3.7923 -10.7229   8.9243 H              1 <1>                0.0000
     18 H18         -3.7151 -10.9861  10.6830 H              1 <1>                0.0000
     19 H19         -1.8247  -9.2202   9.0628 H              1 <1>                0.0000
     20 H20         -1.7475  -9.4834  10.8214 H              1 <1>                0.0000
     21 H21         -0.6154 -10.6149   7.6750 H              1 <1>                0.0000
     22 H22          2.7739 -15.6216   9.3547 H              1 <1>                0.0000
     23 H23          2.9128 -13.8502   9.2494 H              1 <1>                0.0000
     24 H24          2.1860 -14.6018  10.6900 H              1 <1>                0.0000
     25 H25         -2.4263 -12.6534  12.0293 H              1 <1>                0.0000
@<TRIPOS>BOND
    1    1    2 1     
    2    1   16 1     
    3    1   17 1     
    4    1   18 1     
    5    2    3 1     
    6    2   19 1     
    7    2   20 1     
    8    3   14 ar    
    9    3    4 ar    
   10    4    5 ar    
   11    4   21 1     
   12    5    6 1     
   13    5    7 ar    
   14    7    8 1     
   15    7   10 ar    
   16    8    9 1     
   17    9   22 1     
   18    9   23 1     
   19    9   24 1     
   20   10   11 1     
   21   10   14 ar    
   22   11   12 ar    
   23   11   13 ar    
   24   14   15 1     
   25   15   25 1     
@<TRIPOS>SUBSTRUCTURE
      1 ****           1
@<TRIPOS>SET
DONOR_HYDROGENS      STATIC     ATOMS    <user>   **** ""
1 25
ATOM$RED        STATIC     ATOMS    COLORGROUP SYSTEM
1 25
@<TRIPOS>COMMENT
> <Gold.Version>
2022.2.0

> <Gold.Id.Protein>
3pbl|protein|mol2

> <Gold.Protein.RotatedTorsions>
[ 1303 1298 1297 1294 ] final  -90.93 input  179.99 | X-H torsion
[ 2461 2456 2455 2452 ] final  -76.79 input   30.03 | X-H torsion
[ 2515 2510 2509 2506 ] final   62.18 input  -89.99 | X-H torsion
[ 3721 3712 3711 3710 ] final -126.32 input -179.91 | X-H torsion
[ 3841 3832 3831 3830 ] final  -10.95 input -179.91 | X-H torsion
[ 3767 3762 3761 3758 ] final -179.41 input  -89.99 | X-H torsion
[ 2472 2467 2466 2463 ] final   36.00 input  -89.97 | X-H torsion

> <Gold.Protein.ActiveResidues>
 VAL82   VAL86   LEU89   PHE106  VAL107  ASP110  VAL111  MET112  CYS114  THR115 
 CYS181  SER182  ILE183  PHE188  VAL189  ILE190  SER192  SER193  SER196  TRP342 
 PHE345  PHE346  HIS349  VAL350  TYR365  THR369  GLY372  TYR373 

> <Gold.Protein.RotatedAtoms>
    3.8383   -8.6189    3.8751 H   0  0  0  0  0  0  0  0  0  0  0  0  # atno 1303 bound_to 1298
    0.3304   -8.7592    7.5528 H   0  0  0  0  0  0  0  0  0  0  0  0  # atno 2461 bound_to 2456
   -4.2566   -4.7999    7.7221 H   0  0  0  0  0  0  0  0  0  0  0  0  # atno 2472 bound_to 2467
    2.1393   -7.4746    5.4810 H   0  0  0  0  0  0  0  0  0  0  0  0  # atno 2515 bound_to 2510
   -3.2487  -16.6142   14.3254 H   0  0  0  0  0  0  0  0  0  0  0  0  # atno 3721 bound_to 3712
   -4.0999  -22.5255   11.5698 H   0  0  0  0  0  0  0  0  0  0  0  0  # atno 3767 bound_to 3762
    1.6538  -20.3587    9.4952 H   0  0  0  0  0  0  0  0  0  0  0  0  # atno 3841 bound_to 3832
    4.9021   -9.3298    4.8896 LP  0  0  0  0  0  0  0  0  0  0  0  0  # atno 4297 bound_to 1298
    3.6218  -10.1730    4.3271 LP  0  0  0  0  0  0  0  0  0  0  0  0  # atno 4298 bound_to 1298
    1.6997   -9.1028    8.3740 LP  0  0  0  0  0  0  0  0  0  0  0  0  # atno 4299 bound_to 2456
    1.7074   -7.9462    7.2213 LP  0  0  0  0  0  0  0  0  0  0  0  0  # atno 4300 bound_to 2456
    2.8191   -8.4653    4.3755 LP  0  0  0  0  0  0  0  0  0  0  0  0  # atno 4301 bound_to 2510
    2.3385   -9.0596    5.8186 LP  0  0  0  0  0  0  0  0  0  0  0  0  # atno 4302 bound_to 2510
   -3.1382  -17.4461   12.9566 LP  0  0  0  0  0  0  0  0  0  0  0  0  # atno 4306 bound_to 3712
   -2.6387  -18.0988   14.3676 LP  0  0  0  0  0  0  0  0  0  0  0  0  # atno 4307 bound_to 3712
    2.3104  -19.6999    8.1871 LP  0  0  0  0  0  0  0  0  0  0  0  0  # atno 4314 bound_to 3832
    3.0086  -20.9881    8.9081 LP  0  0  0  0  0  0  0  0  0  0  0  0  # atno 4315 bound_to 3832
   -4.5614  -23.2841   10.1993 LP  0  0  0  0  0  0  0  0  0  0  0  0  # atno 4318 bound_to 3762
   -5.4659  -22.0654   10.8022 LP  0  0  0  0  0  0  0  0  0  0  0  0  # atno 4319 bound_to 3762
   -3.9654   -5.3155    9.2438 LP  0  0  0  0  0  0  0  0  0  0  0  0  # atno 4320 bound_to 2467
   -5.4949   -5.2781    8.6731 LP  0  0  0  0  0  0  0  0  0  0  0  0  # atno 4321 bound_to 2467

> <Gold.Score>
     Score     S(PLP)   S(hbond)     S(cho)   S(metal)  DE(clash)   DE(tors)     intcor
     39.99     -40.72       0.00       0.00       0.00       0.00       0.37       0.01

> <Gold.PLP.Fitness>
39.9908

> <Gold.PLP.PLP>
-40.7195

> <Gold.PLP.part.hbond>
-1.7830

> <Gold.PLP.part.metal>
0.0000

> <Gold.PLP.part.buried>
2.1656

> <Gold.PLP.part.nonpolar>
-42.4051

> <Gold.PLP.part.repulsive>
0.3211

> <Gold.PLP.ligand.clash>
0.0000

> <Gold.PLP.ligand.torsion>
0.3681

> <Gold.PLP.Chemscore.Hbond>
0.0000

> <Gold.PLP.Chemscore.CHOScore>
0.0000

> <Gold.PLP.Chemscore.Metal>
0.0000

> <Gold.PLP.Chemscore.Internal.Correction>
0.0076

