#       Name:                acide_i001
#       Creating user name   fsindt
#       Creation time:       Fri Aug 11 18:08:44 2023


#       File generated by GOLD software.
#

@<TRIPOS>MOLECULE
acide_i001|acide|mol2|1|dock10
    25    25     1
SMALL
NO_CHARGES


@<TRIPOS>ATOM
      1 C1           1.2543 -16.2617  13.8187 C.3            1 <1>                0.0000
      2 C2          -0.1616 -16.3046  13.2407 C.3            1 <1>                0.0000
      3 C3          -0.2827 -15.2913  12.1319 C.ar           1 <1>                0.0000
      4 C4          -0.6975 -14.0039  12.4181 C.ar           1 <1>                0.0000
      5 C5          -0.8133 -13.0628  11.4107 C.ar           1 <1>                0.0000
      6 Cl6         -1.3353 -11.4508  11.7886 Cl             1 <1>                0.0000
      7 C7          -0.5137 -13.4022  10.1008 C.ar           1 <1>                0.0000
      8 O8          -0.6275 -12.4779   9.1147 O.3            1 <1>                0.0000
      9 C9           0.5285 -11.6875   8.8298 C.3            1 <1>                0.0000
     10 C10         -0.0913 -14.7072   9.7987 C.ar           1 <1>                0.0000
     11 C11          0.2292 -15.0793   8.4151 C.2            1 <1>                0.0000
     12 O12          0.5571 -14.2178   7.6101 O.co2          1 <1>                0.0000
     13 O13          0.1683 -16.2509   8.0668 O.co2          1 <1>                0.0000
     14 C14          0.0277 -15.6518  10.8311 C.ar           1 <1>                0.0000
     15 O15          0.4350 -16.9155  10.5537 O.3            1 <1>                0.0000
     16 H16          1.3418 -16.9946  14.6208 H              1 <1>                0.0000
     17 H17          1.9743 -16.4940  13.0340 H              1 <1>                0.0000
     18 H18          1.4556 -15.2657  14.2132 H              1 <1>                0.0000
     19 H19         -0.3630 -17.3006  12.8463 H              1 <1>                0.0000
     20 H20         -0.8816 -16.0723  14.0254 H              1 <1>                0.0000
     21 H21         -0.9335 -13.7308  13.4361 H              1 <1>                0.0000
     22 H22          0.3021 -10.9902   8.0232 H              1 <1>                0.0000
     23 H23          0.8166 -11.1307   9.7214 H              1 <1>                0.0000
     24 H24          1.3486 -12.3389   8.5275 H              1 <1>                0.0000
     25 H25          1.2332 -16.9610  10.0098 H              1 <1>                0.0000
@<TRIPOS>BOND
    1    1    2 1     
    2    1   16 1     
    3    1   17 1     
    4    1   18 1     
    5    2    3 1     
    6    2   19 1     
    7    2   20 1     
    8    3   14 ar    
    9    3    4 ar    
   10    4    5 ar    
   11    4   21 1     
   12    5    6 1     
   13    5    7 ar    
   14    7    8 1     
   15    7   10 ar    
   16    8    9 1     
   17    9   22 1     
   18    9   23 1     
   19    9   24 1     
   20   10   11 1     
   21   10   14 ar    
   22   11   12 ar    
   23   11   13 ar    
   24   14   15 1     
   25   15   25 1     
@<TRIPOS>SUBSTRUCTURE
      1 ****           1
@<TRIPOS>SET
DONOR_HYDROGENS      STATIC     ATOMS    <user>   **** ""
1 25
ATOM$RED        STATIC     ATOMS    COLORGROUP SYSTEM
1 25
@<TRIPOS>COMMENT
> <Gold.Version>
2022.2.0

> <Gold.Id.Protein>
3pbl|protein|mol2

> <Gold.Protein.RotatedTorsions>
[ 1303 1298 1297 1294 ] final  143.89 input  179.99 | X-H torsion
[ 2461 2456 2455 2452 ] final  105.96 input   30.03 | X-H torsion
[ 2515 2510 2509 2506 ] final -177.26 input  -89.99 | X-H torsion
[ 3721 3712 3711 3710 ] final    5.71 input -179.91 | X-H torsion
[ 3841 3832 3831 3830 ] final -139.14 input -179.91 | X-H torsion
[ 3767 3762 3761 3758 ] final   29.53 input  -89.99 | X-H torsion
[ 2472 2467 2466 2463 ] final  154.71 input  -89.97 | X-H torsion

> <Gold.Protein.ActiveResidues>
 VAL82   VAL86   LEU89   PHE106  VAL107  ASP110  VAL111  MET112  CYS114  THR115 
 CYS181  SER182  ILE183  PHE188  VAL189  ILE190  SER192  SER193  SER196  TRP342 
 PHE345  PHE346  HIS349  VAL350  TYR365  THR369  GLY372  TYR373 

> <Gold.Protein.RotatedAtoms>
    4.8872   -9.4108    4.9113 H   0  0  0  0  0  0  0  0  0  0  0  0  # atno 1303 bound_to 1298
    2.1602   -8.4783    7.9109 H   0  0  0  0  0  0  0  0  0  0  0  0  # atno 2461 bound_to 2456
   -5.4984   -5.2720    8.6530 H   0  0  0  0  0  0  0  0  0  0  0  0  # atno 2472 bound_to 2467
    2.3425   -9.0648    5.8121 H   0  0  0  0  0  0  0  0  0  0  0  0  # atno 2515 bound_to 2510
   -2.4770  -17.9864   14.1620 H   0  0  0  0  0  0  0  0  0  0  0  0  # atno 3721 bound_to 3712
   -4.9890  -23.0521   10.0643 H   0  0  0  0  0  0  0  0  0  0  0  0  # atno 3767 bound_to 3762
    2.4851  -19.6759    8.3691 H   0  0  0  0  0  0  0  0  0  0  0  0  # atno 3841 bound_to 3832
    3.5683  -10.1325    4.2742 LP  0  0  0  0  0  0  0  0  0  0  0  0  # atno 4297 bound_to 1298
    3.9064   -8.5780    3.9059 LP  0  0  0  0  0  0  0  0  0  0  0  0  # atno 4298 bound_to 1298
    0.8307   -8.0808    7.0497 LP  0  0  0  0  0  0  0  0  0  0  0  0  # atno 4299 bound_to 2456
    0.7471   -9.2491    8.1876 LP  0  0  0  0  0  0  0  0  0  0  0  0  # atno 4300 bound_to 2456
    2.1363   -7.4777    5.4892 LP  0  0  0  0  0  0  0  0  0  0  0  0  # atno 4301 bound_to 2510
    2.8179   -8.4562    4.3736 LP  0  0  0  0  0  0  0  0  0  0  0  0  # atno 4302 bound_to 2510
   -3.4079  -16.7312   14.5305 LP  0  0  0  0  0  0  0  0  0  0  0  0  # atno 4306 bound_to 3712
   -3.2601  -17.2294   12.9824 LP  0  0  0  0  0  0  0  0  0  0  0  0  # atno 4307 bound_to 3712
    2.9093  -21.0696    9.0426 LP  0  0  0  0  0  0  0  0  0  0  0  0  # atno 4314 bound_to 3832
    1.4494  -20.4071    9.3534 LP  0  0  0  0  0  0  0  0  0  0  0  0  # atno 4315 bound_to 3832
   -5.2202  -21.9199   11.2182 LP  0  0  0  0  0  0  0  0  0  0  0  0  # atno 4318 bound_to 3762
   -3.9183  -22.9032   11.2883 LP  0  0  0  0  0  0  0  0  0  0  0  0  # atno 4319 bound_to 3762
   -4.2369   -4.7998    7.7300 LP  0  0  0  0  0  0  0  0  0  0  0  0  # atno 4320 bound_to 2467
   -3.9818   -5.3217    9.2561 LP  0  0  0  0  0  0  0  0  0  0  0  0  # atno 4321 bound_to 2467

> <Gold.Score>
     Score     S(PLP)   S(hbond)     S(cho)   S(metal)  DE(clash)   DE(tors)     intcor
     38.40     -37.39       1.00       0.00       0.00       0.00       1.00       0.01

> <Gold.PLP.Fitness>
38.3990

> <Gold.PLP.PLP>
-37.3884

> <Gold.PLP.part.hbond>
-0.8473

> <Gold.PLP.part.metal>
0.0000

> <Gold.PLP.part.buried>
-5.3515

> <Gold.PLP.part.nonpolar>
-31.6691

> <Gold.PLP.part.repulsive>
0.2355

> <Gold.PLP.ligand.clash>
0.0000

> <Gold.PLP.ligand.torsion>
0.9985

> <Gold.PLP.Chemscore.Hbond>
1.0000

> <Gold.PLP.Chemscore.CHOScore>
0.0000

> <Gold.PLP.Chemscore.Metal>
0.0000

> <Gold.Chemscore.Hbonds>
donor molecule, donor type, donor heavy atom, donor atom, acceptor molecule, acceptor atom, score
      L1  H    15    25       P1  1227  1.00

> <Gold.PLP.Chemscore.Internal.Correction>
0.0076

