#       Name:                acide_i001
#       Creating user name   fsindt
#       Creation time:       Fri Aug 11 18:08:47 2023


#       File generated by GOLD software.
#

@<TRIPOS>MOLECULE
acide_i001|acide|mol2|1|dock13
    25    25     1
SMALL
NO_CHARGES


@<TRIPOS>ATOM
      1 C1           1.3156 -14.4249   8.0891 C.3            1 <1>                0.0000
      2 C2           0.2835 -14.1471   9.1837 C.3            1 <1>                0.0000
      3 C3           0.0003 -15.4184   9.9416 C.ar           1 <1>                0.0000
      4 C4          -0.3428 -16.5679   9.2542 C.ar           1 <1>                0.0000
      5 C5          -0.6055 -17.7424   9.9365 C.ar           1 <1>                0.0000
      6 Cl6         -1.0345 -19.1762   9.0568 Cl             1 <1>                0.0000
      7 C7          -0.5271 -17.7785  11.3197 C.ar           1 <1>                0.0000
      8 O8          -0.7847 -18.9313  11.9865 O.3            1 <1>                0.0000
      9 C9           0.1329 -20.0100  11.7957 C.3            1 <1>                0.0000
     10 C10         -0.1794 -16.6168  12.0281 C.ar           1 <1>                0.0000
     11 C11         -0.0929 -16.6419  13.4935 C.2            1 <1>                0.0000
     12 O12          0.3192 -15.6615  14.0990 O.co2          1 <1>                0.0000
     13 O13         -0.4328 -17.6434  14.1095 O.co2          1 <1>                0.0000
     14 C14          0.0905 -15.4321  11.3237 C.ar           1 <1>                0.0000
     15 O15          0.4279 -14.3029  11.9951 O.3            1 <1>                0.0000
     16 H16          1.5204 -13.5054   7.5408 H              1 <1>                0.0000
     17 H17          2.2370 -14.7903   8.5427 H              1 <1>                0.0000
     18 H18          0.9249 -15.1772   7.4037 H              1 <1>                0.0000
     19 H19          0.6742 -13.3948   9.8690 H              1 <1>                0.0000
     20 H20         -0.6378 -13.7817   8.7301 H              1 <1>                0.0000
     21 H21         -0.4067 -16.5486   8.1763 H              1 <1>                0.0000
     22 H22         -0.1890 -20.8693  12.3841 H              1 <1>                0.0000
     23 H23          0.1597 -20.2818  10.7405 H              1 <1>                0.0000
     24 H24          1.1279 -19.7019  12.1170 H              1 <1>                0.0000
     25 H25          0.7531 -13.5904  11.4280 H              1 <1>                0.0000
@<TRIPOS>BOND
    1    1    2 1     
    2    1   16 1     
    3    1   17 1     
    4    1   18 1     
    5    2    3 1     
    6    2   19 1     
    7    2   20 1     
    8    3   14 ar    
    9    3    4 ar    
   10    4    5 ar    
   11    4   21 1     
   12    5    6 1     
   13    5    7 ar    
   14    7    8 1     
   15    7   10 ar    
   16    8    9 1     
   17    9   22 1     
   18    9   23 1     
   19    9   24 1     
   20   10   11 1     
   21   10   14 ar    
   22   11   12 ar    
   23   11   13 ar    
   24   14   15 1     
   25   15   25 1     
@<TRIPOS>SUBSTRUCTURE
      1 ****           1
@<TRIPOS>SET
DONOR_HYDROGENS      STATIC     ATOMS    <user>   **** ""
1 25
ATOM$RED        STATIC     ATOMS    COLORGROUP SYSTEM
1 25
@<TRIPOS>COMMENT
> <Gold.Version>
2022.2.0

> <Gold.Id.Protein>
3pbl|protein|mol2

> <Gold.Protein.RotatedTorsions>
[ 1303 1298 1297 1294 ] final   84.43 input  179.99 | X-H torsion
[ 2461 2456 2455 2452 ] final -135.69 input   30.03 | X-H torsion
[ 2515 2510 2509 2506 ] final  151.60 input  -89.99 | X-H torsion
[ 3721 3712 3711 3710 ] final    7.06 input -179.91 | X-H torsion
[ 3841 3832 3831 3830 ] final  -52.01 input -179.91 | X-H torsion
[ 3767 3762 3761 3758 ] final  157.96 input  -89.99 | X-H torsion
[ 2472 2467 2466 2463 ] final    8.59 input  -89.97 | X-H torsion

> <Gold.Protein.ActiveResidues>
 VAL82   VAL86   LEU89   PHE106  VAL107  ASP110  VAL111  MET112  CYS114  THR115 
 CYS181  SER182  ILE183  PHE188  VAL189  ILE190  SER192  SER193  SER196  TRP342 
 PHE345  PHE346  HIS349  VAL350  TYR365  THR369  GLY372  TYR373 

> <Gold.Protein.RotatedAtoms>
    4.3420  -10.1654    4.8252 H   0  0  0  0  0  0  0  0  0  0  0  0  # atno 1303 bound_to 1298
    0.7692   -9.2555    8.2018 H   0  0  0  0  0  0  0  0  0  0  0  0  # atno 2461 bound_to 2456
   -3.8855   -4.8471    7.9663 H   0  0  0  0  0  0  0  0  0  0  0  0  # atno 2472 bound_to 2467
    2.1520   -8.6673    6.0605 H   0  0  0  0  0  0  0  0  0  0  0  0  # atno 2515 bound_to 2510
   -2.4753  -17.9925   14.1426 H   0  0  0  0  0  0  0  0  0  0  0  0  # atno 3721 bound_to 3712
   -3.9458  -22.8038   11.3811 H   0  0  0  0  0  0  0  0  0  0  0  0  # atno 3767 bound_to 3762
    1.5813  -19.8879    9.1186 H   0  0  0  0  0  0  0  0  0  0  0  0  # atno 3841 bound_to 3832
    3.3522   -9.3450    3.8184 LP  0  0  0  0  0  0  0  0  0  0  0  0  # atno 4297 bound_to 1298
    4.6679   -8.6106    4.4478 LP  0  0  0  0  0  0  0  0  0  0  0  0  # atno 4298 bound_to 1298
    2.1610   -8.4591    7.8919 LP  0  0  0  0  0  0  0  0  0  0  0  0  # atno 4299 bound_to 2456
    0.8075   -8.0938    7.0545 LP  0  0  0  0  0  0  0  0  0  0  0  0  # atno 4300 bound_to 2456
    2.3210   -7.4192    5.0216 LP  0  0  0  0  0  0  0  0  0  0  0  0  # atno 4301 bound_to 2510
    2.8239   -8.9124    4.5928 LP  0  0  0  0  0  0  0  0  0  0  0  0  # atno 4302 bound_to 2510
   -3.3994  -16.7435   14.5474 LP  0  0  0  0  0  0  0  0  0  0  0  0  # atno 4306 bound_to 3712
   -3.2706  -17.2102   12.9878 LP  0  0  0  0  0  0  0  0  0  0  0  0  # atno 4307 bound_to 3712
    2.8678  -20.0743    8.1772 LP  0  0  0  0  0  0  0  0  0  0  0  0  # atno 4314 bound_to 3832
    2.5349  -21.1574    9.3531 LP  0  0  0  0  0  0  0  0  0  0  0  0  # atno 4315 bound_to 3832
   -4.8760  -23.1311   10.0794 LP  0  0  0  0  0  0  0  0  0  0  0  0  # atno 4318 bound_to 3762
   -5.3052  -21.9402   11.1108 LP  0  0  0  0  0  0  0  0  0  0  0  0  # atno 4319 bound_to 3762
   -4.3626   -5.4221    9.4183 LP  0  0  0  0  0  0  0  0  0  0  0  0  # atno 4320 bound_to 2467
   -5.4687   -5.1243    8.2544 LP  0  0  0  0  0  0  0  0  0  0  0  0  # atno 4321 bound_to 2467

> <Gold.Score>
     Score     S(PLP)   S(hbond)     S(cho)   S(metal)  DE(clash)   DE(tors)     intcor
     36.40     -31.56       1.69       0.00       0.00       0.00       0.12       0.01

> <Gold.PLP.Fitness>
36.4036

> <Gold.PLP.PLP>
-31.5598

> <Gold.PLP.part.hbond>
-1.9016

> <Gold.PLP.part.metal>
0.0000

> <Gold.PLP.part.buried>
-1.2343

> <Gold.PLP.part.nonpolar>
-29.5926

> <Gold.PLP.part.repulsive>
0.0950

> <Gold.PLP.ligand.clash>
0.0000

> <Gold.PLP.ligand.torsion>
0.1225

> <Gold.PLP.Chemscore.Hbond>
1.6938

> <Gold.PLP.Chemscore.CHOScore>
0.0000

> <Gold.PLP.Chemscore.Metal>
0.0000

> <Gold.Chemscore.Hbonds>
donor molecule, donor type, donor heavy atom, donor atom, acceptor molecule, acceptor atom, score
      P1  H  2305  2313       L1    12  0.89
      P1  H  3712  3721       L1    13  0.80

> <Gold.PLP.Chemscore.Internal.Correction>
0.0076

