#       Name:                acide_i001
#       Creating user name   fsindt
#       Creation time:       Fri Aug 11 18:08:53 2023


#       File generated by GOLD software.
#

@<TRIPOS>MOLECULE
acide_i001|acide|mol2|1|dock20
    25    25     1
SMALL
NO_CHARGES


@<TRIPOS>ATOM
      1 C1           0.9366 -15.8930  11.4974 C.3            1 <1>                0.0000
      2 C2           0.4919 -15.7301  10.0426 C.3            1 <1>                0.0000
      3 C3           0.2212 -14.2748   9.7599 C.ar           1 <1>                0.0000
      4 C4          -0.4725 -13.5120  10.6809 C.ar           1 <1>                0.0000
      5 C5          -0.7283 -12.1748  10.4351 C.ar           1 <1>                0.0000
      6 Cl6         -1.6005 -11.2321  11.6033 Cl             1 <1>                0.0000
      7 C7          -0.2906 -11.5849   9.2599 C.ar           1 <1>                0.0000
      8 O8          -0.5423 -10.2736   9.0212 O.3            1 <1>                0.0000
      9 C9          -1.9138  -9.8799   8.9439 C.3            1 <1>                0.0000
     10 C10          0.4150 -12.3505   8.3173 C.ar           1 <1>                0.0000
     11 C11          0.8842 -11.7374   7.0685 C.2            1 <1>                0.0000
     12 O12          1.1085 -10.5351   7.0236 O.co2          1 <1>                0.0000
     13 O13          1.0508 -12.4286   6.0724 O.co2          1 <1>                0.0000
     14 C14          0.6735 -13.7055   8.5809 C.ar           1 <1>                0.0000
     15 O15          1.3543 -14.4564   7.6797 O.3            1 <1>                0.0000
     16 H16          1.1323 -16.9456  11.7019 H              1 <1>                0.0000
     17 H17          1.8452 -15.3149  11.6665 H              1 <1>                0.0000
     18 H18          0.1492 -15.5344  12.1604 H              1 <1>                0.0000
     19 H19          1.2793 -16.0887   9.3796 H              1 <1>                0.0000
     20 H20         -0.4166 -16.3081   9.8735 H              1 <1>                0.0000
     21 H21         -0.8177 -13.9636  11.5992 H              1 <1>                0.0000
     22 H22         -1.9740  -8.8090   8.7497 H              1 <1>                0.0000
     23 H23         -2.4029 -10.4238   8.1358 H              1 <1>                0.0000
     24 H24         -2.4107 -10.1066   9.8873 H              1 <1>                0.0000
     25 H25          2.1400 -14.8886   8.0414 H              1 <1>                0.0000
@<TRIPOS>BOND
    1    1    2 1     
    2    1   16 1     
    3    1   17 1     
    4    1   18 1     
    5    2    3 1     
    6    2   19 1     
    7    2   20 1     
    8    3   14 ar    
    9    3    4 ar    
   10    4    5 ar    
   11    4   21 1     
   12    5    6 1     
   13    5    7 ar    
   14    7    8 1     
   15    7   10 ar    
   16    8    9 1     
   17    9   22 1     
   18    9   23 1     
   19    9   24 1     
   20   10   11 1     
   21   10   14 ar    
   22   11   12 ar    
   23   11   13 ar    
   24   14   15 1     
   25   15   25 1     
@<TRIPOS>SUBSTRUCTURE
      1 ****           1
@<TRIPOS>SET
DONOR_HYDROGENS      STATIC     ATOMS    <user>   **** ""
1 25
ATOM$RED        STATIC     ATOMS    COLORGROUP SYSTEM
1 25
@<TRIPOS>COMMENT
> <Gold.Version>
2022.2.0

> <Gold.Id.Protein>
3pbl|protein|mol2

> <Gold.Protein.RotatedTorsions>
[ 1303 1298 1297 1294 ] final  -33.77 input  179.99 | X-H torsion
[ 2461 2456 2455 2452 ] final -127.85 input   30.03 | X-H torsion
[ 2515 2510 2509 2506 ] final  171.55 input  -89.99 | X-H torsion
[ 3721 3712 3711 3710 ] final   55.02 input -179.91 | X-H torsion
[ 3841 3832 3831 3830 ] final   85.73 input -179.91 | X-H torsion
[ 3767 3762 3761 3758 ] final -140.63 input  -89.99 | X-H torsion
[ 2472 2467 2466 2463 ] final   36.18 input  -89.97 | X-H torsion

> <Gold.Protein.ActiveResidues>
 VAL82   VAL86   LEU89   PHE106  VAL107  ASP110  VAL111  MET112  CYS114  THR115 
 CYS181  SER182  ILE183  PHE188  VAL189  ILE190  SER192  SER193  SER196  TRP342 
 PHE345  PHE346  HIS349  VAL350  TYR365  THR369  GLY372  TYR373 

> <Gold.Protein.RotatedAtoms>
    3.3466   -9.3731    3.8261 H   0  0  0  0  0  0  0  0  0  0  0  0  # atno 1303 bound_to 1298
    0.6671   -9.2207    8.1314 H   0  0  0  0  0  0  0  0  0  0  0  0  # atno 2461 bound_to 2456
   -4.2593   -4.7998    7.7211 H   0  0  0  0  0  0  0  0  0  0  0  0  # atno 2472 bound_to 2467
    2.2679   -8.9413    5.9259 H   0  0  0  0  0  0  0  0  0  0  0  0  # atno 2515 bound_to 2510
   -2.5663  -17.9416   13.4462 H   0  0  0  0  0  0  0  0  0  0  0  0  # atno 3721 bound_to 3712
   -4.5613  -22.1065   11.6307 H   0  0  0  0  0  0  0  0  0  0  0  0  # atno 3767 bound_to 3762
    2.7955  -20.9361    9.3053 H   0  0  0  0  0  0  0  0  0  0  0  0  # atno 3841 bound_to 3832
    4.6498   -8.5961    4.4296 LP  0  0  0  0  0  0  0  0  0  0  0  0  # atno 4297 bound_to 1298
    4.3661  -10.1520    4.8362 LP  0  0  0  0  0  0  0  0  0  0  0  0  # atno 4298 bound_to 1298
    2.1494   -8.5518    7.9805 LP  0  0  0  0  0  0  0  0  0  0  0  0  # atno 4299 bound_to 2456
    0.9210   -8.0359    7.0363 LP  0  0  0  0  0  0  0  0  0  0  0  0  # atno 4300 bound_to 2456
    2.1952   -7.4258    5.3230 LP  0  0  0  0  0  0  0  0  0  0  0  0  # atno 4301 bound_to 2510
    2.8337   -8.6317    4.4260 LP  0  0  0  0  0  0  0  0  0  0  0  0  # atno 4302 bound_to 2510
   -3.0251  -17.3473   14.8654 LP  0  0  0  0  0  0  0  0  0  0  0  0  # atno 4306 bound_to 3712
   -3.5397  -16.6651   13.4738 LP  0  0  0  0  0  0  0  0  0  0  0  0  # atno 4307 bound_to 3712
    1.3910  -20.1699    9.1772 LP  0  0  0  0  0  0  0  0  0  0  0  0  # atno 4314 bound_to 3832
    2.6091  -19.8510    8.1374 LP  0  0  0  0  0  0  0  0  0  0  0  0  # atno 4315 bound_to 3832
   -4.1002  -23.3053   10.6221 LP  0  0  0  0  0  0  0  0  0  0  0  0  # atno 4318 bound_to 3762
   -5.4658  -22.4630   10.3186 LP  0  0  0  0  0  0  0  0  0  0  0  0  # atno 4319 bound_to 3762
   -3.9632   -5.3146    9.2421 LP  0  0  0  0  0  0  0  0  0  0  0  0  # atno 4320 bound_to 2467
   -5.4944   -5.2790    8.6758 LP  0  0  0  0  0  0  0  0  0  0  0  0  # atno 4321 bound_to 2467

> <Gold.Score>
     Score     S(PLP)   S(hbond)     S(cho)   S(metal)  DE(clash)   DE(tors)     intcor
     38.64     -35.34       1.44       0.00       0.00       0.01       0.52       0.01

> <Gold.PLP.Fitness>
38.6406

> <Gold.PLP.PLP>
-35.3388

> <Gold.PLP.part.hbond>
-2.1668

> <Gold.PLP.part.metal>
0.0000

> <Gold.PLP.part.buried>
1.7579

> <Gold.PLP.part.nonpolar>
-36.5187

> <Gold.PLP.part.repulsive>
0.1466

> <Gold.PLP.ligand.clash>
0.0056

> <Gold.PLP.ligand.torsion>
0.5170

> <Gold.PLP.Chemscore.Hbond>
1.4446

> <Gold.PLP.Chemscore.CHOScore>
0.0000

> <Gold.PLP.Chemscore.Metal>
0.0000

> <Gold.Chemscore.Hbonds>
donor molecule, donor type, donor heavy atom, donor atom, acceptor molecule, acceptor atom, score
      P1  H  2456  2461       L1     8  1.00
      P1  H  2510  2515       L1    12  0.44

> <Gold.PLP.Chemscore.Internal.Correction>
0.0076

