#       Name:                acide_i001
#       Creating user name   fsindt
#       Creation time:       Fri Aug 11 18:08:42 2023


#       File generated by GOLD software.
#

@<TRIPOS>MOLECULE
acide_i001|acide|mol2|1|dock7
    25    25     1
SMALL
NO_CHARGES


@<TRIPOS>ATOM
      1 C1          -0.9127  -9.7037  11.6498 C.3            1 <1>                0.0000
      2 C2          -1.8152 -10.8772  11.2635 C.3            1 <1>                0.0000
      3 C3          -1.0188 -11.8857  10.4764 C.ar           1 <1>                0.0000
      4 C4          -0.7942 -13.1455  10.9996 C.ar           1 <1>                0.0000
      5 C5          -0.0650 -14.0817  10.2885 C.ar           1 <1>                0.0000
      6 Cl6          0.2066 -15.6590  10.9609 Cl             1 <1>                0.0000
      7 C7           0.4493 -13.7651   9.0411 C.ar           1 <1>                0.0000
      8 O8           1.1637 -14.6847   8.3455 O.3            1 <1>                0.0000
      9 C9           0.4231 -15.6488   7.5945 C.3            1 <1>                0.0000
     10 C10          0.2273 -12.4882   8.5000 C.ar           1 <1>                0.0000
     11 C11          0.7666 -12.1403   7.1795 C.2            1 <1>                0.0000
     12 O12          1.1508 -10.9999   6.9566 O.co2          1 <1>                0.0000
     13 O13          0.8319 -12.9907   6.3018 O.co2          1 <1>                0.0000
     14 C14         -0.5195 -11.5485   9.2291 C.ar           1 <1>                0.0000
     15 O15         -0.7420 -10.3118   8.7184 O.3            1 <1>                0.0000
     16 H16         -1.4888  -8.9742  12.2191 H              1 <1>                0.0000
     17 H17         -0.0845 -10.0672  12.2580 H              1 <1>                0.0000
     18 H18         -0.5218  -9.2336  10.7474 H              1 <1>                0.0000
     19 H19         -2.2062 -11.3473  12.1659 H              1 <1>                0.0000
     20 H20         -2.6435 -10.5137  10.6552 H              1 <1>                0.0000
     21 H21         -1.1909 -13.4007  11.9711 H              1 <1>                0.0000
     22 H22          1.1136 -16.3226   7.0872 H              1 <1>                0.0000
     23 H23         -0.2149 -16.2215   8.2676 H              1 <1>                0.0000
     24 H24         -0.1944 -15.1377   6.8558 H              1 <1>                0.0000
     25 H25         -1.3868  -9.7908   9.2162 H              1 <1>                0.0000
@<TRIPOS>BOND
    1    1    2 1     
    2    1   16 1     
    3    1   17 1     
    4    1   18 1     
    5    2    3 1     
    6    2   19 1     
    7    2   20 1     
    8    3   14 ar    
    9    3    4 ar    
   10    4    5 ar    
   11    4   21 1     
   12    5    6 1     
   13    5    7 ar    
   14    7    8 1     
   15    7   10 ar    
   16    8    9 1     
   17    9   22 1     
   18    9   23 1     
   19    9   24 1     
   20   10   11 1     
   21   10   14 ar    
   22   11   12 ar    
   23   11   13 ar    
   24   14   15 1     
   25   15   25 1     
@<TRIPOS>SUBSTRUCTURE
      1 ****           1
@<TRIPOS>SET
DONOR_HYDROGENS      STATIC     ATOMS    <user>   **** ""
1 25
ATOM$RED        STATIC     ATOMS    COLORGROUP SYSTEM
1 25
@<TRIPOS>COMMENT
> <Gold.Version>
2022.2.0

> <Gold.Id.Protein>
3pbl|protein|mol2

> <Gold.Protein.RotatedTorsions>
[ 1303 1298 1297 1294 ] final -177.38 input  179.99 | X-H torsion
[ 2461 2456 2455 2452 ] final -107.41 input   30.03 | X-H torsion
[ 2515 2510 2509 2506 ] final -178.10 input  -89.99 | X-H torsion
[ 3721 3712 3711 3710 ] final  -87.95 input -179.91 | X-H torsion
[ 3841 3832 3831 3830 ] final  -58.81 input -179.91 | X-H torsion
[ 3767 3762 3761 3758 ] final  134.81 input  -89.99 | X-H torsion
[ 2472 2467 2466 2463 ] final  133.55 input  -89.97 | X-H torsion

> <Gold.Protein.ActiveResidues>
 VAL82   VAL86   LEU89   PHE106  VAL107  ASP110  VAL111  MET112  CYS114  THR115 
 CYS181  SER182  ILE183  PHE188  VAL189  ILE190  SER192  SER193  SER196  TRP342 
 PHE345  PHE346  HIS349  VAL350  TYR365  THR369  GLY372  TYR373 

> <Gold.Protein.RotatedAtoms>
    4.8407   -8.8412    4.6580 H   0  0  0  0  0  0  0  0  0  0  0  0  # atno 1303 bound_to 1298
    0.4558   -9.0777    7.9147 H   0  0  0  0  0  0  0  0  0  0  0  0  # atno 2461 bound_to 2456
   -5.4892   -5.1538    8.3278 H   0  0  0  0  0  0  0  0  0  0  0  0  # atno 2472 bound_to 2467
    2.3367   -9.0565    5.8215 H   0  0  0  0  0  0  0  0  0  0  0  0  # atno 2515 bound_to 2510
   -3.0099  -16.9735   14.6969 H   0  0  0  0  0  0  0  0  0  0  0  0  # atno 3721 bound_to 3712
   -3.9099  -23.0598   11.1046 H   0  0  0  0  0  0  0  0  0  0  0  0  # atno 3767 bound_to 3762
    1.6075  -19.8227    9.0439 H   0  0  0  0  0  0  0  0  0  0  0  0  # atno 3841 bound_to 3832
    4.0442  -10.2666    4.6569 LP  0  0  0  0  0  0  0  0  0  0  0  0  # atno 4297 bound_to 1298
    3.4770   -9.0137    3.7766 LP  0  0  0  0  0  0  0  0  0  0  0  0  # atno 4298 bound_to 1298
    2.0413   -8.7939    8.1847 LP  0  0  0  0  0  0  0  0  0  0  0  0  # atno 4299 bound_to 2456
    1.2404   -7.9367    7.0488 LP  0  0  0  0  0  0  0  0  0  0  0  0  # atno 4300 bound_to 2456
    2.1404   -7.4726    5.4770 LP  0  0  0  0  0  0  0  0  0  0  0  0  # atno 4301 bound_to 2510
    2.8197   -8.4697    4.3765 LP  0  0  0  0  0  0  0  0  0  0  0  0  # atno 4302 bound_to 2510
   -3.4237  -16.9184   13.1466 LP  0  0  0  0  0  0  0  0  0  0  0  0  # atno 4306 bound_to 3712
   -2.6291  -18.2118   13.7486 LP  0  0  0  0  0  0  0  0  0  0  0  0  # atno 4307 bound_to 3712
    2.9369  -20.1583    8.2095 LP  0  0  0  0  0  0  0  0  0  0  0  0  # atno 4314 bound_to 3832
    2.4355  -21.1489    9.4070 LP  0  0  0  0  0  0  0  0  0  0  0  0  # atno 4315 bound_to 3832
   -5.1711  -22.8942   10.0806 LP  0  0  0  0  0  0  0  0  0  0  0  0  # atno 4318 bound_to 3762
   -5.0461  -21.9212   11.3860 LP  0  0  0  0  0  0  0  0  0  0  0  0  # atno 4319 bound_to 3762
   -3.9435   -4.8326    7.9106 LP  0  0  0  0  0  0  0  0  0  0  0  0  # atno 4320 bound_to 2467
   -4.2845   -5.4071    9.4007 LP  0  0  0  0  0  0  0  0  0  0  0  0  # atno 4321 bound_to 2467

> <Gold.Score>
     Score     S(PLP)   S(hbond)     S(cho)   S(metal)  DE(clash)   DE(tors)     intcor
     44.86     -43.56       1.00       0.00       0.00       0.04       0.83       0.01

> <Gold.PLP.Fitness>
44.8618

> <Gold.PLP.PLP>
-43.5629

> <Gold.PLP.part.hbond>
-2.1853

> <Gold.PLP.part.metal>
0.0000

> <Gold.PLP.part.buried>
-5.0472

> <Gold.PLP.part.nonpolar>
-37.5439

> <Gold.PLP.part.repulsive>
0.2670

> <Gold.PLP.ligand.clash>
0.0443

> <Gold.PLP.ligand.torsion>
0.8322

> <Gold.PLP.Chemscore.Hbond>
1.0000

> <Gold.PLP.Chemscore.CHOScore>
0.0000

> <Gold.PLP.Chemscore.Metal>
0.0000

> <Gold.Chemscore.Hbonds>
donor molecule, donor type, donor heavy atom, donor atom, acceptor molecule, acceptor atom, score
      P1  H  2456  2461       L1    15  1.00

> <Gold.PLP.Chemscore.Internal.Correction>
0.0076

