#       Name:                acide_i001
#       Creating user name   fsindt
#       Creation time:       Fri Aug 11 18:08:52 2023


#       File generated by GOLD software.
#

@<TRIPOS>MOLECULE
acide_i001|acide|mol2|1|dock19
    25    25     1
SMALL
NO_CHARGES


@<TRIPOS>ATOM
      1 C1          -0.5734  -9.4647  11.4087 C.3            1 <1>                0.0000
      2 C2          -1.3676 -10.0663  10.2476 C.3            1 <1>                0.0000
      3 C3          -0.7163 -11.3514   9.8058 C.ar           1 <1>                0.0000
      4 C4          -0.1207 -11.4288   8.5606 C.ar           1 <1>                0.0000
      5 C5           0.4812 -12.6019   8.1414 C.ar           1 <1>                0.0000
      6 Cl6          1.2246 -12.6806   6.5746 Cl             1 <1>                0.0000
      7 C7           0.4930 -13.7142   8.9680 C.ar           1 <1>                0.0000
      8 O8           1.0840 -14.8632   8.5551 O.3            1 <1>                0.0000
      9 C9           0.4480 -15.5738   7.4909 C.3            1 <1>                0.0000
     10 C10         -0.1091 -13.6468  10.2350 C.ar           1 <1>                0.0000
     11 C11         -0.1033 -14.8182  11.1201 C.2            1 <1>                0.0000
     12 O12         -0.2983 -14.6792  12.3203 O.co2          1 <1>                0.0000
     13 O13          0.0967 -15.9335  10.6577 O.co2          1 <1>                0.0000
     14 C14         -0.7118 -12.4486  10.6513 C.ar           1 <1>                0.0000
     15 O15         -1.2965 -12.3692  11.8726 O.3            1 <1>                0.0000
     16 H16         -1.0444  -8.5352  11.7282 H              1 <1>                0.0000
     17 H17         -0.5570 -10.1686  12.2409 H              1 <1>                0.0000
     18 H18          0.4473  -9.2620  11.0842 H              1 <1>                0.0000
     19 H19         -2.3883 -10.2690  10.5720 H              1 <1>                0.0000
     20 H20         -1.3840  -9.3625   9.4154 H              1 <1>                0.0000
     21 H21         -0.1256 -10.5669   7.9098 H              1 <1>                0.0000
     22 H22          1.0218 -16.4710   7.2591 H              1 <1>                0.0000
     23 H23         -0.5604 -15.8556   7.7939 H              1 <1>                0.0000
     24 H24          0.3973 -14.9367   6.6078 H              1 <1>                0.0000
     25 H25         -1.7862 -11.5489  12.0217 H              1 <1>                0.0000
@<TRIPOS>BOND
    1    1    2 1     
    2    1   16 1     
    3    1   17 1     
    4    1   18 1     
    5    2    3 1     
    6    2   19 1     
    7    2   20 1     
    8    3   14 ar    
    9    3    4 ar    
   10    4    5 ar    
   11    4   21 1     
   12    5    6 1     
   13    5    7 ar    
   14    7    8 1     
   15    7   10 ar    
   16    8    9 1     
   17    9   22 1     
   18    9   23 1     
   19    9   24 1     
   20   10   11 1     
   21   10   14 ar    
   22   11   12 ar    
   23   11   13 ar    
   24   14   15 1     
   25   15   25 1     
@<TRIPOS>SUBSTRUCTURE
      1 ****           1
@<TRIPOS>SET
DONOR_HYDROGENS      STATIC     ATOMS    <user>   **** ""
1 25
ATOM$RED        STATIC     ATOMS    COLORGROUP SYSTEM
1 25
@<TRIPOS>COMMENT
> <Gold.Version>
2022.2.0

> <Gold.Id.Protein>
3pbl|protein|mol2

> <Gold.Protein.RotatedTorsions>
[ 1303 1298 1297 1294 ] final -171.69 input  179.99 | X-H torsion
[ 2461 2456 2455 2452 ] final  -43.04 input   30.03 | X-H torsion
[ 2515 2510 2509 2506 ] final  116.98 input  -89.99 | X-H torsion
[ 3721 3712 3711 3710 ] final   10.68 input -179.91 | X-H torsion
[ 3841 3832 3831 3830 ] final  -37.49 input -179.91 | X-H torsion
[ 3767 3762 3761 3758 ] final  118.13 input  -89.99 | X-H torsion
[ 2472 2467 2466 2463 ] final  -12.65 input  -89.97 | X-H torsion

> <Gold.Protein.ActiveResidues>
 VAL82   VAL86   LEU89   PHE106  VAL107  ASP110  VAL111  MET112  CYS114  THR115 
 CYS181  SER182  ILE183  PHE188  VAL189  ILE190  SER192  SER193  SER196  TRP342 
 PHE345  PHE346  HIS349  VAL350  TYR365  THR369  GLY372  TYR373 

> <Gold.Protein.RotatedAtoms>
    4.8047   -8.7721    4.6061 H   0  0  0  0  0  0  0  0  0  0  0  0  # atno 1303 bound_to 1298
    0.4871   -8.3618    7.2105 H   0  0  0  0  0  0  0  0  0  0  0  0  # atno 2461 bound_to 2456
   -3.7008   -4.9287    8.2491 H   0  0  0  0  0  0  0  0  0  0  0  0  # atno 2472 bound_to 2467
    2.0367   -8.1185    6.0532 H   0  0  0  0  0  0  0  0  0  0  0  0  # atno 2515 bound_to 2510
   -2.4718  -18.0067   14.0898 H   0  0  0  0  0  0  0  0  0  0  0  0  # atno 3721 bound_to 3712
   -3.9642  -23.2028   10.8779 H   0  0  0  0  0  0  0  0  0  0  0  0  # atno 3767 bound_to 3762
    1.5615  -20.0440    9.2706 H   0  0  0  0  0  0  0  0  0  0  0  0  # atno 3841 bound_to 3832
    4.1227  -10.2524    4.7060 LP  0  0  0  0  0  0  0  0  0  0  0  0  # atno 4297 bound_to 1298
    3.4345   -9.0971    3.7794 LP  0  0  0  0  0  0  0  0  0  0  0  0  # atno 4298 bound_to 1298
    1.1817   -9.2793    8.3695 LP  0  0  0  0  0  0  0  0  0  0  0  0  # atno 4299 bound_to 2456
    2.0688   -8.1670    7.5680 LP  0  0  0  0  0  0  0  0  0  0  0  0  # atno 4300 bound_to 2456
    2.5611   -7.6614    4.5761 LP  0  0  0  0  0  0  0  0  0  0  0  0  # atno 4301 bound_to 2510
    2.6990   -9.2193    5.0455 LP  0  0  0  0  0  0  0  0  0  0  0  0  # atno 4302 bound_to 2510
   -3.3757  -16.7780   14.5911 LP  0  0  0  0  0  0  0  0  0  0  0  0  # atno 4306 bound_to 3712
   -3.2983  -17.1592   13.0051 LP  0  0  0  0  0  0  0  0  0  0  0  0  # atno 4307 bound_to 3712
    2.6927  -19.9115    8.1398 LP  0  0  0  0  0  0  0  0  0  0  0  0  # atno 4314 bound_to 3832
    2.7328  -21.1399    9.2149 LP  0  0  0  0  0  0  0  0  0  0  0  0  # atno 4315 bound_to 3832
   -5.3398  -22.6942   10.1598 LP  0  0  0  0  0  0  0  0  0  0  0  0  # atno 4318 bound_to 3762
   -4.8231  -21.9783   11.5334 LP  0  0  0  0  0  0  0  0  0  0  0  0  # atno 4319 bound_to 3762
   -4.7079   -5.4604    9.4193 LP  0  0  0  0  0  0  0  0  0  0  0  0  # atno 4320 bound_to 2467
   -5.3080   -5.0044    7.9707 LP  0  0  0  0  0  0  0  0  0  0  0  0  # atno 4321 bound_to 2467

> <Gold.Score>
     Score     S(PLP)   S(hbond)     S(cho)   S(metal)  DE(clash)   DE(tors)     intcor
     44.12     -44.69       0.00       0.00       0.00       0.00       0.29       0.01

> <Gold.PLP.Fitness>
44.1184

> <Gold.PLP.PLP>
-44.6851

> <Gold.PLP.part.hbond>
-0.8318

> <Gold.PLP.part.metal>
0.0000

> <Gold.PLP.part.buried>
-5.0589

> <Gold.PLP.part.nonpolar>
-39.7196

> <Gold.PLP.part.repulsive>
0.3296

> <Gold.PLP.ligand.clash>
0.0000

> <Gold.PLP.ligand.torsion>
0.2871

> <Gold.PLP.Chemscore.Hbond>
0.0000

> <Gold.PLP.Chemscore.CHOScore>
0.0000

> <Gold.PLP.Chemscore.Metal>
0.0000

> <Gold.PLP.Chemscore.Internal.Correction>
0.0076

