#       Name:                acide_i001
#       Creating user name   fsindt
#       Creation time:       Fri Aug 11 18:08:45 2023


#       File generated by GOLD software.
#

@<TRIPOS>MOLECULE
acide_i001|acide|mol2|1|dock11
    25    25     1
SMALL
NO_CHARGES


@<TRIPOS>ATOM
      1 C1          -1.8075 -18.8912   8.4060 C.3            1 <1>                0.0000
      2 C2          -0.4110 -18.6001   8.9592 C.3            1 <1>                0.0000
      3 C3          -0.4704 -18.5333  10.4635 C.ar           1 <1>                0.0000
      4 C4          -0.8345 -19.6527  11.1886 C.ar           1 <1>                0.0000
      5 C5          -0.8934 -19.6063  12.5700 C.ar           1 <1>                0.0000
      6 Cl6         -1.3522 -21.0218  13.4642 Cl             1 <1>                0.0000
      7 C7          -0.5870 -18.4340  13.2427 C.ar           1 <1>                0.0000
      8 O8          -0.6450 -18.3909  14.5972 O.3            1 <1>                0.0000
      9 C9           0.3057 -19.1824  15.3126 C.3            1 <1>                0.0000
     10 C10         -0.2159 -17.2908  12.5161 C.ar           1 <1>                0.0000
     11 C11          0.1112 -16.0428  13.2168 C.2            1 <1>                0.0000
     12 O12          0.4158 -16.0682  14.4019 O.co2          1 <1>                0.0000
     13 O13          0.0791 -14.9771  12.6160 O.co2          1 <1>                0.0000
     14 C14         -0.1543 -17.3522  11.1144 C.ar           1 <1>                0.0000
     15 O15          0.2032 -16.2559  10.4002 O.3            1 <1>                0.0000
     16 H16         -1.7646 -18.9394   7.3179 H              1 <1>                0.0000
     17 H17         -2.1623 -19.8442   8.7983 H              1 <1>                0.0000
     18 H18         -2.4906 -18.0971   8.7078 H              1 <1>                0.0000
     19 H19          0.2721 -19.3941   8.6574 H              1 <1>                0.0000
     20 H20         -0.0562 -17.6471   8.5669 H              1 <1>                0.0000
     21 H21         -1.0753 -20.5703  10.6726 H              1 <1>                0.0000
     22 H22          0.1498 -19.0570  16.3842 H              1 <1>                0.0000
     23 H23          0.1779 -20.2318  15.0472 H              1 <1>                0.0000
     24 H24          1.3146 -18.8620  15.0523 H              1 <1>                0.0000
     25 H25          0.9582 -16.3980   9.8131 H              1 <1>                0.0000
@<TRIPOS>BOND
    1    1    2 1     
    2    1   16 1     
    3    1   17 1     
    4    1   18 1     
    5    2    3 1     
    6    2   19 1     
    7    2   20 1     
    8    3   14 ar    
    9    3    4 ar    
   10    4    5 ar    
   11    4   21 1     
   12    5    6 1     
   13    5    7 ar    
   14    7    8 1     
   15    7   10 ar    
   16    8    9 1     
   17    9   22 1     
   18    9   23 1     
   19    9   24 1     
   20   10   11 1     
   21   10   14 ar    
   22   11   12 ar    
   23   11   13 ar    
   24   14   15 1     
   25   15   25 1     
@<TRIPOS>SUBSTRUCTURE
      1 ****           1
@<TRIPOS>SET
DONOR_HYDROGENS      STATIC     ATOMS    <user>   **** ""
1 25
ATOM$RED        STATIC     ATOMS    COLORGROUP SYSTEM
1 25
@<TRIPOS>COMMENT
> <Gold.Version>
2022.2.0

> <Gold.Id.Protein>
3pbl|protein|mol2

> <Gold.Protein.RotatedTorsions>
[ 1303 1298 1297 1294 ] final   16.98 input  179.99 | X-H torsion
[ 2461 2456 2455 2452 ] final    6.65 input   30.03 | X-H torsion
[ 2515 2510 2509 2506 ] final  -23.28 input  -89.99 | X-H torsion
[ 3721 3712 3711 3710 ] final  -13.52 input -179.91 | X-H torsion
[ 3841 3832 3831 3830 ] final -117.33 input -179.91 | X-H torsion
[ 3767 3762 3761 3758 ] final -166.54 input  -89.99 | X-H torsion
[ 2472 2467 2466 2463 ] final  133.23 input  -89.97 | X-H torsion

> <Gold.Protein.ActiveResidues>
 VAL82   VAL86   LEU89   PHE106  VAL107  ASP110  VAL111  MET112  CYS114  THR115 
 CYS181  SER182  ILE183  PHE188  VAL189  ILE190  SER192  SER193  SER196  TRP342 
 PHE345  PHE346  HIS349  VAL350  TYR365  THR369  GLY372  TYR373 

> <Gold.Protein.RotatedAtoms>
    3.5040  -10.0689    4.2055 H   0  0  0  0  0  0  0  0  0  0  0  0  # atno 1303 bound_to 1298
    1.1457   -7.9570    7.0360 H   0  0  0  0  0  0  0  0  0  0  0  0  # atno 2461 bound_to 2456
   -5.4880   -5.1519    8.3230 H   0  0  0  0  0  0  0  0  0  0  0  0  # atno 2472 bound_to 2467
    2.6857   -7.9232    4.4151 H   0  0  0  0  0  0  0  0  0  0  0  0  # atno 2515 bound_to 2510
   -2.5267  -17.8601   14.4175 H   0  0  0  0  0  0  0  0  0  0  0  0  # atno 3721 bound_to 3712
   -4.2316  -22.3711   11.6295 H   0  0  0  0  0  0  0  0  0  0  0  0  # atno 3767 bound_to 3762
    2.1877  -19.5878    8.4744 H   0  0  0  0  0  0  0  0  0  0  0  0  # atno 3841 bound_to 3832
    3.9998   -8.5336    3.9535 LP  0  0  0  0  0  0  0  0  0  0  0  0  # atno 4297 bound_to 1298
    4.8586   -9.5186    4.9326 LP  0  0  0  0  0  0  0  0  0  0  0  0  # atno 4298 bound_to 1298
    0.5081   -9.1262    7.9815 LP  0  0  0  0  0  0  0  0  0  0  0  0  # atno 4299 bound_to 2456
    2.0839   -8.7247    8.1304 LP  0  0  0  0  0  0  0  0  0  0  0  0  # atno 4300 bound_to 2456
    2.5775   -9.2559    5.3522 LP  0  0  0  0  0  0  0  0  0  0  0  0  # atno 4301 bound_to 2510
    2.0334   -7.8202    5.9083 LP  0  0  0  0  0  0  0  0  0  0  0  0  # atno 4302 bound_to 2510
   -3.5078  -16.5994   14.2567 LP  0  0  0  0  0  0  0  0  0  0  0  0  # atno 4306 bound_to 3712
   -3.1028  -17.5072   12.9611 LP  0  0  0  0  0  0  0  0  0  0  0  0  # atno 4307 bound_to 3712
    3.0771  -20.8891    8.7771 LP  0  0  0  0  0  0  0  0  0  0  0  0  # atno 4314 bound_to 3832
    1.6252  -20.6893    9.4973 LP  0  0  0  0  0  0  0  0  0  0  0  0  # atno 4315 bound_to 3832
   -4.3894  -23.3268   10.3147 LP  0  0  0  0  0  0  0  0  0  0  0  0  # atno 4318 bound_to 3762
   -5.5062  -22.1770   10.6272 LP  0  0  0  0  0  0  0  0  0  0  0  0  # atno 4319 bound_to 3762
   -3.9396   -4.8334    7.9141 LP  0  0  0  0  0  0  0  0  0  0  0  0  # atno 4320 bound_to 2467
   -4.2895   -5.4082    9.4020 LP  0  0  0  0  0  0  0  0  0  0  0  0  # atno 4321 bound_to 2467

> <Gold.Score>
     Score     S(PLP)   S(hbond)     S(cho)   S(metal)  DE(clash)   DE(tors)     intcor
     38.27     -31.96       2.25       0.00       0.00       0.00       0.22       0.01

> <Gold.PLP.Fitness>
38.2667

> <Gold.PLP.PLP>
-31.9630

> <Gold.PLP.part.hbond>
-2.9922

> <Gold.PLP.part.metal>
0.0000

> <Gold.PLP.part.buried>
-1.0934

> <Gold.PLP.part.nonpolar>
-29.7943

> <Gold.PLP.part.repulsive>
0.0868

> <Gold.PLP.ligand.clash>
0.0000

> <Gold.PLP.ligand.torsion>
0.2235

> <Gold.PLP.Chemscore.Hbond>
2.2477

> <Gold.PLP.Chemscore.CHOScore>
0.0000

> <Gold.PLP.Chemscore.Metal>
0.0000

> <Gold.Chemscore.Hbonds>
donor molecule, donor type, donor heavy atom, donor atom, acceptor molecule, acceptor atom, score
      L1  H    15    25       P1  1227  0.86
      P1  H  2305  2313       L1    12  0.99
      P1  H  3712  3721       L1     8  0.40

> <Gold.PLP.Chemscore.Internal.Correction>
0.0076

