#       Name:                acide_i001
#       Creating user name   fsindt
#       Creation time:       Fri Aug 11 18:08:46 2023


#       File generated by GOLD software.
#

@<TRIPOS>MOLECULE
acide_i001|acide|mol2|1|dock12
    25    25     1
SMALL
NO_CHARGES


@<TRIPOS>ATOM
      1 C1          -3.4705 -10.5606   9.8390 C.3            1 <1>                0.0000
      2 C2          -2.1899 -10.5851  10.6757 C.3            1 <1>                0.0000
      3 C3          -1.1910 -11.5162  10.0383 C.ar           1 <1>                0.0000
      4 C4          -0.8610 -12.7044  10.6635 C.ar           1 <1>                0.0000
      5 C5           0.0543 -13.5691  10.0904 C.ar           1 <1>                0.0000
      6 Cl6          0.4562 -15.0570  10.8895 Cl             1 <1>                0.0000
      7 C7           0.6511 -13.2521   8.8805 C.ar           1 <1>                0.0000
      8 O8           1.5479 -14.1016   8.3202 O.3            1 <1>                0.0000
      9 C9           1.1534 -14.7583   7.1139 C.3            1 <1>                0.0000
     10 C10          0.3233 -12.0477   8.2366 C.ar           1 <1>                0.0000
     11 C11          0.9485 -11.7003   6.9545 C.2            1 <1>                0.0000
     12 O12          1.7737 -10.7980   6.9007 O.co2          1 <1>                0.0000
     13 O13          0.6445 -12.3129   5.9395 O.co2          1 <1>                0.0000
     14 C14         -0.6116 -11.1809   8.8257 C.ar           1 <1>                0.0000
     15 O15         -0.9379 -10.0148   8.2147 O.3            1 <1>                0.0000
     16 H16         -4.1931  -9.8872  10.3000 H              1 <1>                0.0000
     17 H17         -3.2401 -10.2123   8.8321 H              1 <1>                0.0000
     18 H18         -3.8909 -11.5651   9.7886 H              1 <1>                0.0000
     19 H19         -1.7696  -9.5806  10.7261 H              1 <1>                0.0000
     20 H20         -2.4203 -10.9334  11.6825 H              1 <1>                0.0000
     21 H21         -1.3210 -12.9592  11.6069 H              1 <1>                0.0000
     22 H22          1.9602 -15.4070   6.7728 H              1 <1>                0.0000
     23 H23          0.2611 -15.3558   7.3006 H              1 <1>                0.0000
     24 H24          0.9379 -14.0130   6.3481 H              1 <1>                0.0000
     25 H25         -1.5188  -9.4457   8.7378 H              1 <1>                0.0000
@<TRIPOS>BOND
    1    1    2 1     
    2    1   16 1     
    3    1   17 1     
    4    1   18 1     
    5    2    3 1     
    6    2   19 1     
    7    2   20 1     
    8    3   14 ar    
    9    3    4 ar    
   10    4    5 ar    
   11    4   21 1     
   12    5    6 1     
   13    5    7 ar    
   14    7    8 1     
   15    7   10 ar    
   16    8    9 1     
   17    9   22 1     
   18    9   23 1     
   19    9   24 1     
   20   10   11 1     
   21   10   14 ar    
   22   11   12 ar    
   23   11   13 ar    
   24   14   15 1     
   25   15   25 1     
@<TRIPOS>SUBSTRUCTURE
      1 ****           1
@<TRIPOS>SET
DONOR_HYDROGENS      STATIC     ATOMS    <user>   **** ""
1 25
ATOM$RED        STATIC     ATOMS    COLORGROUP SYSTEM
1 25
@<TRIPOS>COMMENT
> <Gold.Version>
2022.2.0

> <Gold.Id.Protein>
3pbl|protein|mol2

> <Gold.Protein.RotatedTorsions>
[ 1303 1298 1297 1294 ] final   36.30 input  179.99 | X-H torsion
[ 2461 2456 2455 2452 ] final -104.61 input   30.03 | X-H torsion
[ 2515 2510 2509 2506 ] final -173.38 input  -89.99 | X-H torsion
[ 3721 3712 3711 3710 ] final   55.04 input -179.91 | X-H torsion
[ 3841 3832 3831 3830 ] final  -87.48 input -179.91 | X-H torsion
[ 3767 3762 3761 3758 ] final   13.52 input  -89.99 | X-H torsion
[ 2472 2467 2466 2463 ] final   -9.66 input  -89.97 | X-H torsion

> <Gold.Protein.ActiveResidues>
 VAL82   VAL86   LEU89   PHE106  VAL107  ASP110  VAL111  MET112  CYS114  THR115 
 CYS181  SER182  ILE183  PHE188  VAL189  ILE190  SER192  SER193  SER196  TRP342 
 PHE345  PHE346  HIS349  VAL350  TYR365  THR369  GLY372  TYR373 

> <Gold.Protein.RotatedAtoms>
    3.7029  -10.2179    4.4015 H   0  0  0  0  0  0  0  0  0  0  0  0  # atno 1303 bound_to 1298
    0.4342   -9.0530    7.8825 H   0  0  0  0  0  0  0  0  0  0  0  0  # atno 2461 bound_to 2456
   -3.7200   -4.9152    8.2059 H   0  0  0  0  0  0  0  0  0  0  0  0  # atno 2472 bound_to 2467
    2.3693   -9.1014    5.7672 H   0  0  0  0  0  0  0  0  0  0  0  0  # atno 2515 bound_to 2510
   -2.5664  -17.9416   13.4461 H   0  0  0  0  0  0  0  0  0  0  0  0  # atno 3721 bound_to 3712
   -5.1854  -22.8790   10.0838 H   0  0  0  0  0  0  0  0  0  0  0  0  # atno 3767 bound_to 3762
    1.8258  -19.6254    8.7321 H   0  0  0  0  0  0  0  0  0  0  0  0  # atno 3841 bound_to 3832
    3.7478   -8.6861    3.8376 LP  0  0  0  0  0  0  0  0  0  0  0  0  # atno 4297 bound_to 1298
    4.9117   -9.2171    4.8525 LP  0  0  0  0  0  0  0  0  0  0  0  0  # atno 4298 bound_to 1298
    2.0183   -8.8258    8.2085 LP  0  0  0  0  0  0  0  0  0  0  0  0  # atno 4299 bound_to 2456
    1.2851   -7.9295    7.0572 LP  0  0  0  0  0  0  0  0  0  0  0  0  # atno 4300 bound_to 2456
    2.1184   -7.5034    5.5448 LP  0  0  0  0  0  0  0  0  0  0  0  0  # atno 4301 bound_to 2510
    2.8090   -8.3940    4.3630 LP  0  0  0  0  0  0  0  0  0  0  0  0  # atno 4302 bound_to 2510
   -3.0250  -17.3474   14.8654 LP  0  0  0  0  0  0  0  0  0  0  0  0  # atno 4306 bound_to 3712
   -3.5397  -16.6650   13.4740 LP  0  0  0  0  0  0  0  0  0  0  0  0  # atno 4307 bound_to 3712
    3.1149  -20.5347    8.4364 LP  0  0  0  0  0  0  0  0  0  0  0  0  # atno 4314 bound_to 3832
    2.0054  -21.0004    9.5403 LP  0  0  0  0  0  0  0  0  0  0  0  0  # atno 4315 bound_to 3832
   -5.0299  -21.9235   11.3990 LP  0  0  0  0  0  0  0  0  0  0  0  0  # atno 4318 bound_to 3762
   -3.9122  -23.0727   11.0880 LP  0  0  0  0  0  0  0  0  0  0  0  0  # atno 4319 bound_to 3762
   -4.6594   -5.4577    9.4265 LP  0  0  0  0  0  0  0  0  0  0  0  0  # atno 4320 bound_to 2467
   -5.3373   -5.0206    8.0067 LP  0  0  0  0  0  0  0  0  0  0  0  0  # atno 4321 bound_to 2467

> <Gold.Score>
     Score     S(PLP)   S(hbond)     S(cho)   S(metal)  DE(clash)   DE(tors)     intcor
     45.36     -42.56       1.92       0.00       0.00       0.00       1.48       0.01

> <Gold.PLP.Fitness>
45.3639

> <Gold.PLP.PLP>
-42.5619

> <Gold.PLP.part.hbond>
-3.0000

> <Gold.PLP.part.metal>
0.0000

> <Gold.PLP.part.buried>
2.5699

> <Gold.PLP.part.nonpolar>
-44.0495

> <Gold.PLP.part.repulsive>
0.2292

> <Gold.PLP.ligand.clash>
0.0000

> <Gold.PLP.ligand.torsion>
1.4827

> <Gold.PLP.Chemscore.Hbond>
1.9199

> <Gold.PLP.Chemscore.CHOScore>
0.0000

> <Gold.PLP.Chemscore.Metal>
0.0000

> <Gold.Chemscore.Hbonds>
donor molecule, donor type, donor heavy atom, donor atom, acceptor molecule, acceptor atom, score
      P1  H  2456  2461       L1    15  1.00
      P1  H  2510  2515       L1    12  0.92

> <Gold.PLP.Chemscore.Internal.Correction>
0.0076

