#       Name:                acide_i001
#       Creating user name   fsindt
#       Creation time:       Fri Aug 11 18:08:38 2023


#       File generated by GOLD software.
#

@<TRIPOS>MOLECULE
acide_i001|acide|mol2|1|dock2
    25    25     1
SMALL
NO_CHARGES


@<TRIPOS>ATOM
      1 C1           0.7452 -15.8297  12.6651 C.3            1 <1>                0.0000
      2 C2          -0.0192 -15.8987  11.3415 C.3            1 <1>                0.0000
      3 C3          -0.0988 -14.5216  10.7349 C.ar           1 <1>                0.0000
      4 C4          -0.7098 -13.4962  11.4325 C.ar           1 <1>                0.0000
      5 C5          -0.7903 -12.2268  10.8884 C.ar           1 <1>                0.0000
      6 Cl6         -1.5607 -10.9512  11.7790 Cl             1 <1>                0.0000
      7 C7          -0.2579 -11.9697   9.6349 C.ar           1 <1>                0.0000
      8 O8          -0.3377 -10.7243   9.1035 O.3            1 <1>                0.0000
      9 C9          -1.6469 -10.1984   8.8766 C.3            1 <1>                0.0000
     10 C10          0.3650 -13.0039   8.9174 C.ar           1 <1>                0.0000
     11 C11          0.9330 -12.7445   7.5886 C.2            1 <1>                0.0000
     12 O12          0.9705 -11.6019   7.1517 O.co2          1 <1>                0.0000
     13 O13          1.3689 -13.6707   6.9180 O.co2          1 <1>                0.0000
     14 C14          0.4455 -14.2869   9.4830 C.ar           1 <1>                0.0000
     15 O15          1.0447 -15.2948   8.8014 O.3            1 <1>                0.0000
     16 H16          0.8027 -16.8258  13.1040 H              1 <1>                0.0000
     17 H17          1.7521 -15.4537  12.4839 H              1 <1>                0.0000
     18 H18          0.2252 -15.1602  13.3504 H              1 <1>                0.0000
     19 H19          0.5007 -16.5682  10.6563 H              1 <1>                0.0000
     20 H20         -1.0262 -16.2747  11.5227 H              1 <1>                0.0000
     21 H21         -1.1277 -13.6877  12.4098 H              1 <1>                0.0000
     22 H22         -1.5679  -9.1984   8.4503 H              1 <1>                0.0000
     23 H23         -2.1840 -10.8470   8.1846 H              1 <1>                0.0000
     24 H24         -2.1875 -10.1488   9.8219 H              1 <1>                0.0000
     25 H25          1.5316 -15.9140   9.3623 H              1 <1>                0.0000
@<TRIPOS>BOND
    1    1    2 1     
    2    1   16 1     
    3    1   17 1     
    4    1   18 1     
    5    2    3 1     
    6    2   19 1     
    7    2   20 1     
    8    3   14 ar    
    9    3    4 ar    
   10    4    5 ar    
   11    4   21 1     
   12    5    6 1     
   13    5    7 ar    
   14    7    8 1     
   15    7   10 ar    
   16    8    9 1     
   17    9   22 1     
   18    9   23 1     
   19    9   24 1     
   20   10   11 1     
   21   10   14 ar    
   22   11   12 ar    
   23   11   13 ar    
   24   14   15 1     
   25   15   25 1     
@<TRIPOS>SUBSTRUCTURE
      1 ****           1
@<TRIPOS>SET
DONOR_HYDROGENS      STATIC     ATOMS    <user>   **** ""
1 25
ATOM$RED        STATIC     ATOMS    COLORGROUP SYSTEM
1 25
@<TRIPOS>COMMENT
> <Gold.Version>
2022.2.0

> <Gold.Id.Protein>
3pbl|protein|mol2

> <Gold.Protein.RotatedTorsions>
[ 1303 1298 1297 1294 ] final  116.32 input  179.99 | X-H torsion
[ 2461 2456 2455 2452 ] final -146.14 input   30.03 | X-H torsion
[ 2515 2510 2509 2506 ] final  159.21 input  -89.99 | X-H torsion
[ 3721 3712 3711 3710 ] final   40.76 input -179.91 | X-H torsion
[ 3841 3832 3831 3830 ] final    1.78 input -179.91 | X-H torsion
[ 3767 3762 3761 3758 ] final   60.28 input  -89.99 | X-H torsion
[ 2472 2467 2466 2463 ] final  177.33 input  -89.97 | X-H torsion

> <Gold.Protein.ActiveResidues>
 VAL82   VAL86   LEU89   PHE106  VAL107  ASP110  VAL111  MET112  CYS114  THR115 
 CYS181  SER182  ILE183  PHE188  VAL189  ILE190  SER192  SER193  SER196  TRP342 
 PHE345  PHE346  HIS349  VAL350  TYR365  THR369  GLY372  TYR373 

> <Gold.Protein.RotatedAtoms>
    4.7098   -9.8219    4.9475 H   0  0  0  0  0  0  0  0  0  0  0  0  # atno 1303 bound_to 1298
    0.9188   -9.2830    8.2815 H   0  0  0  0  0  0  0  0  0  0  0  0  # atno 2461 bound_to 2456
   -5.3705   -5.3771    8.9837 H   0  0  0  0  0  0  0  0  0  0  0  0  # atno 2472 bound_to 2467
    2.1929   -8.7785    6.0204 H   0  0  0  0  0  0  0  0  0  0  0  0  # atno 2515 bound_to 2510
   -2.5095  -18.0105   13.6418 H   0  0  0  0  0  0  0  0  0  0  0  0  # atno 3721 bound_to 3712
   -4.5653  -23.2823   10.1964 H   0  0  0  0  0  0  0  0  0  0  0  0  # atno 3767 bound_to 3762
    1.7524  -20.5069    9.5669 H   0  0  0  0  0  0  0  0  0  0  0  0  # atno 3841 bound_to 3832
    3.3689   -9.8238    4.0158 LP  0  0  0  0  0  0  0  0  0  0  0  0  # atno 4297 bound_to 1298
    4.2833   -8.4755    4.1280 LP  0  0  0  0  0  0  0  0  0  0  0  0  # atno 4298 bound_to 1298
    2.1498   -8.3398    7.7689 LP  0  0  0  0  0  0  0  0  0  0  0  0  # atno 4299 bound_to 2456
    0.6690   -8.1856    7.0979 LP  0  0  0  0  0  0  0  0  0  0  0  0  # atno 4300 bound_to 2456
    2.2706   -7.4085    5.1356 LP  0  0  0  0  0  0  0  0  0  0  0  0  # atno 4301 bound_to 2510
    2.8334   -8.8120    4.5189 LP  0  0  0  0  0  0  0  0  0  0  0  0  # atno 4302 bound_to 2510
   -3.1443  -17.1439   14.8351 LP  0  0  0  0  0  0  0  0  0  0  0  0  # atno 4306 bound_to 3712
   -3.4861  -16.7890   13.2782 LP  0  0  0  0  0  0  0  0  0  0  0  0  # atno 4307 bound_to 3712
    2.1179  -19.6489    8.2606 LP  0  0  0  0  0  0  0  0  0  0  0  0  # atno 4314 bound_to 3832
    3.0872  -20.8678    8.7518 LP  0  0  0  0  0  0  0  0  0  0  0  0  # atno 4315 bound_to 3832
   -5.4644  -22.0631   10.8063 LP  0  0  0  0  0  0  0  0  0  0  0  0  # atno 4318 bound_to 3762
   -4.0976  -22.5299   11.5682 LP  0  0  0  0  0  0  0  0  0  0  0  0  # atno 4319 bound_to 3762
   -4.5995   -4.8141    7.6590 LP  0  0  0  0  0  0  0  0  0  0  0  0  # atno 4320 bound_to 2467
   -3.7470   -5.2024    8.9965 LP  0  0  0  0  0  0  0  0  0  0  0  0  # atno 4321 bound_to 2467

> <Gold.Score>
     Score     S(PLP)   S(hbond)     S(cho)   S(metal)  DE(clash)   DE(tors)     intcor
     47.86     -41.90       2.00       0.00       0.00       0.01       0.02       0.01

> <Gold.PLP.Fitness>
47.8577

> <Gold.PLP.PLP>
-41.9039

> <Gold.PLP.part.hbond>
-2.2345

> <Gold.PLP.part.metal>
0.0000

> <Gold.PLP.part.buried>
-6.4125

> <Gold.PLP.part.nonpolar>
-33.9199

> <Gold.PLP.part.repulsive>
0.1471

> <Gold.PLP.ligand.clash>
0.0100

> <Gold.PLP.ligand.torsion>
0.0219

> <Gold.PLP.Chemscore.Hbond>
2.0000

> <Gold.PLP.Chemscore.CHOScore>
0.0000

> <Gold.PLP.Chemscore.Metal>
0.0000

> <Gold.Chemscore.Hbonds>
donor molecule, donor type, donor heavy atom, donor atom, acceptor molecule, acceptor atom, score
      L1  H    15    25       P1  1227  1.00
      P1  H  2456  2461       L1     8  1.00

> <Gold.PLP.Chemscore.Internal.Correction>
0.0076

