#       Name:                acide_i001
#       Creating user name   fsindt
#       Creation time:       Fri Aug 11 18:08:39 2023


#       File generated by GOLD software.
#

@<TRIPOS>MOLECULE
acide_i001|acide|mol2|1|dock3
    25    25     1
SMALL
NO_CHARGES


@<TRIPOS>ATOM
      1 C1           1.0051 -15.6078  13.2439 C.3            1 <1>                0.0000
      2 C2          -0.4009 -15.5313  12.6455 C.3            1 <1>                0.0000
      3 C3          -0.3931 -14.5992  11.4615 C.ar           1 <1>                0.0000
      4 C4          -0.6981 -13.2620  11.6359 C.ar           1 <1>                0.0000
      5 C5          -0.6949 -12.3945  10.5583 C.ar           1 <1>                0.0000
      6 Cl6         -1.0800 -10.7185  10.7961 Cl             1 <1>                0.0000
      7 C7          -0.3850 -12.8584   9.2897 C.ar           1 <1>                0.0000
      8 O8          -0.3820 -12.0059   8.2346 O.3            1 <1>                0.0000
      9 C9           0.8859 -11.7020   7.6497 C.3            1 <1>                0.0000
     10 C10         -0.0735 -14.2148   9.1010 C.ar           1 <1>                0.0000
     11 C11          0.2566 -14.7187   7.7621 C.2            1 <1>                0.0000
     12 O12         -0.1169 -14.1082   6.7693 O.co2          1 <1>                0.0000
     13 O13          0.9051 -15.7493   7.6389 O.co2          1 <1>                0.0000
     14 C14         -0.0746 -15.0844  10.2038 C.ar           1 <1>                0.0000
     15 O15          0.2248 -16.3966  10.0362 O.3            1 <1>                0.0000
     16 H16          0.9994 -16.2820  14.1004 H              1 <1>                0.0000
     17 H17          1.7001 -15.9815  12.4919 H              1 <1>                0.0000
     18 H18          1.3176 -14.6143  13.5656 H              1 <1>                0.0000
     19 H19         -0.7134 -16.5248  12.3239 H              1 <1>                0.0000
     20 H20         -1.0960 -15.1576  13.3975 H              1 <1>                0.0000
     21 H21         -0.9412 -12.8920  12.6210 H              1 <1>                0.0000
     22 H22          0.7462 -11.0112   6.8181 H              1 <1>                0.0000
     23 H23          1.5310 -11.2431   8.3988 H              1 <1>                0.0000
     24 H24          1.3476 -12.6200   7.2858 H              1 <1>                0.0000
     25 H25          1.1179 -16.5567   9.7019 H              1 <1>                0.0000
@<TRIPOS>BOND
    1    1    2 1     
    2    1   16 1     
    3    1   17 1     
    4    1   18 1     
    5    2    3 1     
    6    2   19 1     
    7    2   20 1     
    8    3   14 ar    
    9    3    4 ar    
   10    4    5 ar    
   11    4   21 1     
   12    5    6 1     
   13    5    7 ar    
   14    7    8 1     
   15    7   10 ar    
   16    8    9 1     
   17    9   22 1     
   18    9   23 1     
   19    9   24 1     
   20   10   11 1     
   21   10   14 ar    
   22   11   12 ar    
   23   11   13 ar    
   24   14   15 1     
   25   15   25 1     
@<TRIPOS>SUBSTRUCTURE
      1 ****           1
@<TRIPOS>SET
DONOR_HYDROGENS      STATIC     ATOMS    <user>   **** ""
1 25
ATOM$RED        STATIC     ATOMS    COLORGROUP SYSTEM
1 25
@<TRIPOS>COMMENT
> <Gold.Version>
2022.2.0

> <Gold.Id.Protein>
3pbl|protein|mol2

> <Gold.Protein.RotatedTorsions>
[ 1303 1298 1297 1294 ] final   24.22 input  179.99 | X-H torsion
[ 2461 2456 2455 2452 ] final  -71.36 input   30.03 | X-H torsion
[ 2515 2510 2509 2506 ] final  -88.66 input  -89.99 | X-H torsion
[ 3721 3712 3711 3710 ] final  -30.15 input -179.91 | X-H torsion
[ 3841 3832 3831 3830 ] final  -76.17 input -179.91 | X-H torsion
[ 3767 3762 3761 3758 ] final  103.72 input  -89.99 | X-H torsion
[ 2472 2467 2466 2463 ] final  -63.22 input  -89.97 | X-H torsion

> <Gold.Protein.ActiveResidues>
 VAL82   VAL86   LEU89   PHE106  VAL107  ASP110  VAL111  MET112  CYS114  THR115 
 CYS181  SER182  ILE183  PHE188  VAL189  ILE190  SER192  SER193  SER196  TRP342 
 PHE345  PHE346  HIS349  VAL350  TYR365  THR369  GLY372  TYR373 

> <Gold.Protein.RotatedAtoms>
    3.5715  -10.1350    4.2780 H   0  0  0  0  0  0  0  0  0  0  0  0  # atno 1303 bound_to 1298
    0.3349   -8.6954    7.4906 H   0  0  0  0  0  0  0  0  0  0  0  0  # atno 2461 bound_to 2456
   -3.7512   -5.2061    9.0035 H   0  0  0  0  0  0  0  0  0  0  0  0  # atno 2472 bound_to 2467
    2.8234   -8.9155    4.5958 H   0  0  0  0  0  0  0  0  0  0  0  0  # atno 2515 bound_to 2510
   -2.6039  -17.6982   14.5923 H   0  0  0  0  0  0  0  0  0  0  0  0  # atno 3721 bound_to 3712
   -4.0619  -23.2875   10.6797 H   0  0  0  0  0  0  0  0  0  0  0  0  # atno 3767 bound_to 3762
    1.7206  -19.6863    8.8518 H   0  0  0  0  0  0  0  0  0  0  0  0  # atno 3841 bound_to 3832
    3.9021   -8.5803    3.9039 LP  0  0  0  0  0  0  0  0  0  0  0  0  # atno 4297 bound_to 1298
    4.8888   -9.4057    4.9098 LP  0  0  0  0  0  0  0  0  0  0  0  0  # atno 4298 bound_to 1298
    1.6225   -9.1449    8.3891 LP  0  0  0  0  0  0  0  0  0  0  0  0  # atno 4299 bound_to 2456
    1.7801   -7.9679    7.2683 LP  0  0  0  0  0  0  0  0  0  0  0  0  # atno 4300 bound_to 2456
    2.1504   -8.6635    6.0619 LP  0  0  0  0  0  0  0  0  0  0  0  0  # atno 4301 bound_to 2510
    2.3227   -7.4198    5.0178 LP  0  0  0  0  0  0  0  0  0  0  0  0  # atno 4302 bound_to 2510
   -3.5566  -16.5559   13.9876 LP  0  0  0  0  0  0  0  0  0  0  0  0  # atno 4306 bound_to 3712
   -2.9648  -17.7375   13.0283 LP  0  0  0  0  0  0  0  0  0  0  0  0  # atno 4307 bound_to 3712
    3.0684  -20.3851    8.3312 LP  0  0  0  0  0  0  0  0  0  0  0  0  # atno 4314 bound_to 3832
    2.1734  -21.0796    9.5073 LP  0  0  0  0  0  0  0  0  0  0  0  0  # atno 4315 bound_to 3832
   -5.4434  -22.5160   10.2759 LP  0  0  0  0  0  0  0  0  0  0  0  0  # atno 4318 bound_to 3762
   -4.6218  -22.0718   11.6154 LP  0  0  0  0  0  0  0  0  0  0  0  0  # atno 4319 bound_to 3762
   -5.3752   -5.3743    8.9766 LP  0  0  0  0  0  0  0  0  0  0  0  0  # atno 4320 bound_to 2467
   -4.5904   -4.8131    7.6591 LP  0  0  0  0  0  0  0  0  0  0  0  0  # atno 4321 bound_to 2467

> <Gold.Score>
     Score     S(PLP)   S(hbond)     S(cho)   S(metal)  DE(clash)   DE(tors)     intcor
     42.54     -40.85       1.00       0.00       0.00       0.00       0.66       0.01

> <Gold.PLP.Fitness>
42.5376

> <Gold.PLP.PLP>
-40.8541

> <Gold.PLP.part.hbond>
-1.0000

> <Gold.PLP.part.metal>
0.0000

> <Gold.PLP.part.buried>
-5.9939

> <Gold.PLP.part.nonpolar>
-34.1522

> <Gold.PLP.part.repulsive>
0.2914

> <Gold.PLP.ligand.clash>
0.0000

> <Gold.PLP.ligand.torsion>
0.6621

> <Gold.PLP.Chemscore.Hbond>
1.0000

> <Gold.PLP.Chemscore.CHOScore>
0.0000

> <Gold.PLP.Chemscore.Metal>
0.0000

> <Gold.Chemscore.Hbonds>
donor molecule, donor type, donor heavy atom, donor atom, acceptor molecule, acceptor atom, score
      L1  H    15    25       P1  1227  1.00

> <Gold.PLP.Chemscore.Internal.Correction>
0.0076

