#       Name:                acide_i001
#       Creating user name   fsindt
#       Creation time:       Fri Aug 11 18:08:37 2023


#       File generated by GOLD software.
#

@<TRIPOS>MOLECULE
acide_i001|acide|mol2|1|dock1
    25    25     1
SMALL
NO_CHARGES


@<TRIPOS>ATOM
      1 C1           1.0091 -15.6025  12.8819 C.3            1 <1>                0.0000
      2 C2          -0.3870 -15.2112  12.3932 C.3            1 <1>                0.0000
      3 C3          -0.2737 -14.4854  11.0775 C.ar           1 <1>                0.0000
      4 C4           0.2860 -15.1226   9.9856 C.ar           1 <1>                0.0000
      5 C5           0.3967 -14.4690   8.7714 C.ar           1 <1>                0.0000
      6 Cl6          1.1018 -15.2850   7.4109 Cl             1 <1>                0.0000
      7 C7          -0.0537 -13.1652   8.6369 C.ar           1 <1>                0.0000
      8 O8           0.0554 -12.5265   7.4453 O.3            1 <1>                0.0000
      9 C9           1.3763 -12.2972   6.9508 C.3            1 <1>                0.0000
     10 C10         -0.6240 -12.5083   9.7395 C.ar           1 <1>                0.0000
     11 C11         -1.1050 -11.1272   9.6101 C.2            1 <1>                0.0000
     12 O12         -0.6967 -10.4200   8.6985 O.co2          1 <1>                0.0000
     13 O13         -1.9141 -10.6832  10.4138 O.co2          1 <1>                0.0000
     14 C14         -0.7359 -13.1845  10.9653 C.ar           1 <1>                0.0000
     15 O15         -1.2851 -12.5623  12.0382 O.3            1 <1>                0.0000
     16 H16          0.9271 -16.1274  13.8336 H              1 <1>                0.0000
     17 H17          1.4818 -16.2542  12.1470 H              1 <1>                0.0000
     18 H18          1.6130 -14.7046  13.0130 H              1 <1>                0.0000
     19 H19         -0.9909 -16.1090  12.2622 H              1 <1>                0.0000
     20 H20         -0.8597 -14.5595  13.1281 H              1 <1>                0.0000
     21 H21          0.6400 -16.1385  10.0815 H              1 <1>                0.0000
     22 H22          1.3210 -11.7798   5.9929 H              1 <1>                0.0000
     23 H23          1.9297 -11.6851   7.6629 H              1 <1>                0.0000
     24 H24          1.8859 -13.2518   6.8191 H              1 <1>                0.0000
     25 H25         -1.9665 -13.0808  12.4873 H              1 <1>                0.0000
@<TRIPOS>BOND
    1    1    2 1     
    2    1   16 1     
    3    1   17 1     
    4    1   18 1     
    5    2    3 1     
    6    2   19 1     
    7    2   20 1     
    8    3   14 ar    
    9    3    4 ar    
   10    4    5 ar    
   11    4   21 1     
   12    5    6 1     
   13    5    7 ar    
   14    7    8 1     
   15    7   10 ar    
   16    8    9 1     
   17    9   22 1     
   18    9   23 1     
   19    9   24 1     
   20   10   11 1     
   21   10   14 ar    
   22   11   12 ar    
   23   11   13 ar    
   24   14   15 1     
   25   15   25 1     
@<TRIPOS>SUBSTRUCTURE
      1 ****           1
@<TRIPOS>SET
DONOR_HYDROGENS      STATIC     ATOMS    <user>   **** ""
1 25
ATOM$RED        STATIC     ATOMS    COLORGROUP SYSTEM
1 25
@<TRIPOS>COMMENT
> <Gold.Version>
2022.2.0

> <Gold.Id.Protein>
3pbl|protein|mol2

> <Gold.Protein.RotatedTorsions>
[ 1303 1298 1297 1294 ] final  -19.38 input  179.99 | X-H torsion
[ 2461 2456 2455 2452 ] final -113.95 input   30.03 | X-H torsion
[ 2515 2510 2509 2506 ] final   38.19 input  -89.99 | X-H torsion
[ 3721 3712 3711 3710 ] final -162.98 input -179.91 | X-H torsion
[ 3841 3832 3831 3830 ] final  -54.67 input -179.91 | X-H torsion
[ 3767 3762 3761 3758 ] final -166.51 input  -89.99 | X-H torsion
[ 2472 2467 2466 2463 ] final  122.95 input  -89.97 | X-H torsion

> <Gold.Protein.ActiveResidues>
 VAL82   VAL86   LEU89   PHE106  VAL107  ASP110  VAL111  MET112  CYS114  THR115 
 CYS181  SER182  ILE183  PHE188  VAL189  ILE190  SER192  SER193  SER196  TRP342 
 PHE345  PHE346  HIS349  VAL350  TYR365  THR369  GLY372  TYR373 

> <Gold.Protein.RotatedAtoms>
    3.3302   -9.5965    3.9013 H   0  0  0  0  0  0  0  0  0  0  0  0  # atno 1303 bound_to 1298
    0.5136   -9.1310    7.9882 H   0  0  0  0  0  0  0  0  0  0  0  0  # atno 2461 bound_to 2456
   -5.4373   -5.0924    8.1733 H   0  0  0  0  0  0  0  0  0  0  0  0  # atno 2472 bound_to 2467
    2.2774   -7.4093    5.1204 H   0  0  0  0  0  0  0  0  0  0  0  0  # atno 2515 bound_to 2510
   -3.3388  -16.5396   13.7932 H   0  0  0  0  0  0  0  0  0  0  0  0  # atno 3721 bound_to 3712
   -4.2319  -22.3708   11.6296 H   0  0  0  0  0  0  0  0  0  0  0  0  # atno 3767 bound_to 3762
    1.5903  -19.8617    9.0896 H   0  0  0  0  0  0  0  0  0  0  0  0  # atno 3841 bound_to 3832
    4.4869   -8.5088    4.2824 LP  0  0  0  0  0  0  0  0  0  0  0  0  # atno 4297 bound_to 1298
    4.5454  -10.0160    4.9080 LP  0  0  0  0  0  0  0  0  0  0  0  0  # atno 4298 bound_to 1298
    2.0878   -8.7176    8.1247 LP  0  0  0  0  0  0  0  0  0  0  0  0  # atno 4299 bound_to 2456
    1.1361   -7.9597    7.0353 LP  0  0  0  0  0  0  0  0  0  0  0  0  # atno 4300 bound_to 2456
    2.8325   -8.8260    4.5281 LP  0  0  0  0  0  0  0  0  0  0  0  0  # atno 4301 bound_to 2510
    2.1869   -8.7643    6.0268 LP  0  0  0  0  0  0  0  0  0  0  0  0  # atno 4302 bound_to 2510
   -2.8430  -17.9296   13.1608 LP  0  0  0  0  0  0  0  0  0  0  0  0  # atno 4306 bound_to 3712
   -2.8300  -17.7014   14.7777 LP  0  0  0  0  0  0  0  0  0  0  0  0  # atno 4307 bound_to 3712
    2.8959  -20.1067    8.1888 LP  0  0  0  0  0  0  0  0  0  0  0  0  # atno 4314 bound_to 3832
    2.4964  -21.1554    9.3751 LP  0  0  0  0  0  0  0  0  0  0  0  0  # atno 4315 bound_to 3832
   -4.3890  -23.3268   10.3150 LP  0  0  0  0  0  0  0  0  0  0  0  0  # atno 4318 bound_to 3762
   -5.5062  -22.1773   10.6268 LP  0  0  0  0  0  0  0  0  0  0  0  0  # atno 4319 bound_to 3762
   -3.8262   -4.8647    8.0354 LP  0  0  0  0  0  0  0  0  0  0  0  0  # atno 4320 bound_to 2467
   -4.4536   -5.4365    9.4304 LP  0  0  0  0  0  0  0  0  0  0  0  0  # atno 4321 bound_to 2467

> <Gold.Score>
     Score     S(PLP)   S(hbond)     S(cho)   S(metal)  DE(clash)   DE(tors)     intcor
     45.55     -42.89       1.00       0.00       0.00       0.00       0.19       0.04

> <Gold.PLP.Fitness>
45.5496

> <Gold.PLP.PLP>
-42.8892

> <Gold.PLP.part.hbond>
-2.0000

> <Gold.PLP.part.metal>
0.0000

> <Gold.PLP.part.buried>
-4.1063

> <Gold.PLP.part.nonpolar>
-36.8908

> <Gold.PLP.part.repulsive>
0.0651

> <Gold.PLP.ligand.clash>
0.0000

> <Gold.PLP.ligand.torsion>
0.1916

> <Gold.PLP.Chemscore.Hbond>
1.0000

> <Gold.PLP.Chemscore.CHOScore>
0.0000

> <Gold.PLP.Chemscore.Metal>
0.0000

> <Gold.Chemscore.Hbonds>
donor molecule, donor type, donor heavy atom, donor atom, acceptor molecule, acceptor atom, score
      P1  H  2456  2461       L1    12  1.00

> <Gold.PLP.Chemscore.Internal.Correction>
0.0437

