#       Name:                acide_i001
#       Creating user name   fsindt
#       Creation time:       Fri Aug 11 18:08:50 2023


#       File generated by GOLD software.
#

@<TRIPOS>MOLECULE
acide_i001|acide|mol2|1|dock17
    25    25     1
SMALL
NO_CHARGES


@<TRIPOS>ATOM
      1 C1           1.3809 -21.8678  13.5250 C.3            1 <1>                0.0000
      2 C2          -0.0315 -21.5833  13.0102 C.3            1 <1>                0.0000
      3 C3          -0.1452 -20.1289  12.6327 C.ar           1 <1>                0.0000
      4 C4          -0.3437 -19.7741  11.3112 C.ar           1 <1>                0.0000
      5 C5          -0.4500 -18.4430  10.9496 C.ar           1 <1>                0.0000
      6 Cl6         -0.6996 -18.0161   9.2855 Cl             1 <1>                0.0000
      7 C7          -0.3584 -17.4491  11.9111 C.ar           1 <1>                0.0000
      8 O8          -0.4634 -16.1447  11.5544 O.3            1 <1>                0.0000
      9 C9           0.7490 -15.3915  11.4851 C.3            1 <1>                0.0000
     10 C10         -0.1569 -17.7982  13.2565 C.ar           1 <1>                0.0000
     11 C11         -0.0582 -16.7547  14.2846 C.2            1 <1>                0.0000
     12 O12         -0.8364 -16.7510  15.2293 O.co2          1 <1>                0.0000
     13 O13          0.8021 -15.8887  14.1970 O.co2          1 <1>                0.0000
     14 C14         -0.0562 -19.1532  13.6117 C.ar           1 <1>                0.0000
     15 O15          0.1379 -19.5045  14.9073 O.3            1 <1>                0.0000
     16 H16          1.4632 -22.9198  13.7982 H              1 <1>                0.0000
     17 H17          2.1055 -21.6375  12.7439 H              1 <1>                0.0000
     18 H18          1.5804 -21.2486  14.3997 H              1 <1>                0.0000
     19 H19         -0.2310 -22.2025  12.1357 H              1 <1>                0.0000
     20 H20         -0.7561 -21.8136  13.7913 H              1 <1>                0.0000
     21 H21         -0.4158 -20.5421  10.5553 H              1 <1>                0.0000
     22 H22          0.5238 -14.3668  11.1895 H              1 <1>                0.0000
     23 H23          1.2320 -15.3899  12.4623 H              1 <1>                0.0000
     24 H24          1.4161 -15.8432  10.7508 H              1 <1>                0.0000
     25 H25         -0.6773 -19.5712  15.4231 H              1 <1>                0.0000
@<TRIPOS>BOND
    1    1    2 1     
    2    1   16 1     
    3    1   17 1     
    4    1   18 1     
    5    2    3 1     
    6    2   19 1     
    7    2   20 1     
    8    3   14 ar    
    9    3    4 ar    
   10    4    5 ar    
   11    4   21 1     
   12    5    6 1     
   13    5    7 ar    
   14    7    8 1     
   15    7   10 ar    
   16    8    9 1     
   17    9   22 1     
   18    9   23 1     
   19    9   24 1     
   20   10   11 1     
   21   10   14 ar    
   22   11   12 ar    
   23   11   13 ar    
   24   14   15 1     
   25   15   25 1     
@<TRIPOS>SUBSTRUCTURE
      1 ****           1
@<TRIPOS>SET
DONOR_HYDROGENS      STATIC     ATOMS    <user>   **** ""
1 25
ATOM$RED        STATIC     ATOMS    COLORGROUP SYSTEM
1 25
@<TRIPOS>COMMENT
> <Gold.Version>
2022.2.0

> <Gold.Id.Protein>
3pbl|protein|mol2

> <Gold.Protein.RotatedTorsions>
[ 1303 1298 1297 1294 ] final -157.96 input  179.99 | X-H torsion
[ 2461 2456 2455 2452 ] final  168.50 input   30.03 | X-H torsion
[ 2515 2510 2509 2506 ] final -125.46 input  -89.99 | X-H torsion
[ 3721 3712 3711 3710 ] final  -44.02 input -179.91 | X-H torsion
[ 3841 3832 3831 3830 ] final  -78.69 input -179.91 | X-H torsion
[ 3767 3762 3761 3758 ] final  -69.18 input  -89.99 | X-H torsion
[ 2472 2467 2466 2463 ] final   36.11 input  -89.97 | X-H torsion

> <Gold.Protein.ActiveResidues>
 VAL82   VAL86   LEU89   PHE106  VAL107  ASP110  VAL111  MET112  CYS114  THR115 
 CYS181  SER182  ILE183  PHE188  VAL189  ILE190  SER192  SER193  SER196  TRP342 
 PHE345  PHE346  HIS349  VAL350  TYR365  THR369  GLY372  TYR373 

> <Gold.Protein.RotatedAtoms>
    4.6909   -8.6310    4.4723 H   0  0  0  0  0  0  0  0  0  0  0  0  # atno 1303 bound_to 1298
    1.6246   -9.1440    8.3891 H   0  0  0  0  0  0  0  0  0  0  0  0  # atno 2461 bound_to 2456
   -4.2583   -4.7999    7.7214 H   0  0  0  0  0  0  0  0  0  0  0  0  # atno 2472 bound_to 2467
    2.6859   -9.2294    5.0822 H   0  0  0  0  0  0  0  0  0  0  0  0  # atno 2515 bound_to 2510
   -2.6879  -17.5358   14.6939 H   0  0  0  0  0  0  0  0  0  0  0  0  # atno 3721 bound_to 3712
   -5.4095  -21.9987   10.9368 H   0  0  0  0  0  0  0  0  0  0  0  0  # atno 3767 bound_to 3762
    1.7421  -19.6706    8.8245 H   0  0  0  0  0  0  0  0  0  0  0  0  # atno 3841 bound_to 3832
    4.3104  -10.1828    4.8094 LP  0  0  0  0  0  0  0  0  0  0  0  0  # atno 4297 bound_to 1298
    3.3607   -9.3078    3.8099 LP  0  0  0  0  0  0  0  0  0  0  0  0  # atno 4298 bound_to 1298
    1.7783   -7.9672    7.2670 LP  0  0  0  0  0  0  0  0  0  0  0  0  # atno 4299 bound_to 2456
    0.3349   -8.6971    7.4923 LP  0  0  0  0  0  0  0  0  0  0  0  0  # atno 4300 bound_to 2456
    2.0334   -8.0803    6.0412 LP  0  0  0  0  0  0  0  0  0  0  0  0  # atno 4301 bound_to 2510
    2.5773   -7.6890    4.5520 LP  0  0  0  0  0  0  0  0  0  0  0  0  # atno 4302 bound_to 2510
   -3.5673  -16.5729   13.7573 LP  0  0  0  0  0  0  0  0  0  0  0  0  # atno 4306 bound_to 3712
   -2.8571  -17.9081   13.1413 LP  0  0  0  0  0  0  0  0  0  0  0  0  # atno 4307 bound_to 3712
    3.0816  -20.4186    8.3531 LP  0  0  0  0  0  0  0  0  0  0  0  0  # atno 4314 bound_to 3832
    2.1354  -21.0641    9.5169 LP  0  0  0  0  0  0  0  0  0  0  0  0  # atno 4315 bound_to 3832
   -4.0207  -22.6467   11.5007 LP  0  0  0  0  0  0  0  0  0  0  0  0  # atno 4318 bound_to 3762
   -4.6974  -23.2294   10.1336 LP  0  0  0  0  0  0  0  0  0  0  0  0  # atno 4319 bound_to 3762
   -3.9640   -5.3150    9.2428 LP  0  0  0  0  0  0  0  0  0  0  0  0  # atno 4320 bound_to 2467
   -5.4946   -5.2787    8.6748 LP  0  0  0  0  0  0  0  0  0  0  0  0  # atno 4321 bound_to 2467

> <Gold.Score>
     Score     S(PLP)   S(hbond)     S(cho)   S(metal)  DE(clash)   DE(tors)     intcor
     35.35     -32.57       1.82       0.00       0.00       0.00       1.34       0.01

> <Gold.PLP.Fitness>
35.3508

> <Gold.PLP.PLP>
-32.5729

> <Gold.PLP.part.hbond>
-2.0000

> <Gold.PLP.part.metal>
0.0000

> <Gold.PLP.part.buried>
-1.4717

> <Gold.PLP.part.nonpolar>
-29.6518

> <Gold.PLP.part.repulsive>
0.1694

> <Gold.PLP.ligand.clash>
0.0000

> <Gold.PLP.ligand.torsion>
1.3389

> <Gold.PLP.Chemscore.Hbond>
1.8160

> <Gold.PLP.Chemscore.CHOScore>
0.0000

> <Gold.PLP.Chemscore.Metal>
0.0000

> <Gold.Chemscore.Hbonds>
donor molecule, donor type, donor heavy atom, donor atom, acceptor molecule, acceptor atom, score
      P1  H  2305  2313       L1    13  1.00
      P1  H  3712  3721       L1    12  0.82

> <Gold.PLP.Chemscore.Internal.Correction>
0.0076

