#       Name:                plp ligand
#       Creating user name   fsindt
#       Creation time:       Fri Aug 11 18:08:36 2023


#       File generated by GOLD software.
#

@<TRIPOS>MOLECULE
plp ligand
    25    25     1
SMALL
NO_CHARGES


@<TRIPOS>ATOM
      1 C1           2.9338   1.4510  -0.8196 NONPOLAR       1 <1>                0.0000
      2 C2           2.3802   1.3352   0.6020 NONPOLAR       1 <1>                0.0000
      3 C3           0.9834   0.7718   0.5529 NONPOLAR       1 <1>                0.0000
      4 C4          -0.1037   1.6260   0.5464 NONPOLAR       1 <1>                0.0000
      5 C5          -1.3918   1.1233   0.5015 NONPOLAR       1 <1>                0.0000
      6 Cl6         -2.7449   2.2109   0.4935 NONPOLAR       1 <1>                0.0000
      7 C7          -1.6059  -0.2454   0.4625 NONPOLAR       1 <1>                0.0000
      8 O8          -2.8697  -0.7360   0.4181 ACCEPTOR       1 <1>                0.0000
      9 C9          -3.4415  -0.9395  -0.8756 NONPOLAR       1 <1>                0.0000
     10 C10         -0.5089  -1.1223   0.4687 NONPOLAR       1 <1>                0.0000
     11 C11         -0.7223  -2.5743   0.4276 NONPOLAR       1 <1>                0.0000
     12 O12         -1.8596  -3.0247   0.3878 ACCEPTOR       1 <1>                0.0000
     13 O13          0.2370  -3.3342   0.4332 ACCEPTOR       1 <1>                0.0000
     14 C14          0.7940  -0.5996   0.5087 NONPOLAR       1 <1>                0.0000
     15 O15          1.8626  -1.4349   0.5146 DONACC         1 <1>                0.0000
     16 H16          3.9441   1.8586  -0.7841                1 <1>                0.0000
     17 H17          2.9561   0.4643  -1.2823                1 <1>                0.0000
     18 H18          2.2955   2.1126  -1.4053                1 <1>                0.0000
     19 H19          3.0185   0.6737   1.1877                1 <1>                0.0000
     20 H20          2.3579   2.3219   1.0647                1 <1>                0.0000
     21 H21          0.0539   2.6940   0.5770                1 <1>                0.0000
     22 H22         -4.4520  -1.3339  -0.7683                1 <1>                0.0000
     23 H23         -3.4768   0.0095  -1.4106                1 <1>                0.0000
     24 H24         -2.8319  -1.6494  -1.4348                1 <1>                0.0000
     25 H25          2.1921  -1.6583  -0.3666                1 <1>                0.0000
@<TRIPOS>BOND
    1    1    2 1     
    2    1   16 1     
    3    1   17 1     
    4    1   18 1     
    5    2    3 1     
    6    2   19 1     
    7    2   20 1     
    8    3   14 ar    
    9    3    4 ar    
   10    4    5 ar    
   11    4   21 1     
   12    5    6 1     
   13    5    7 ar    
   14    7    8 1     
   15    7   10 ar    
   16    8    9 1     
   17    9   22 1     
   18    9   23 1     
   19    9   24 1     
   20   10   11 1     
   21   10   14 ar    
   22   11   12 ar    
   23   11   13 ar    
   24   14   15 1     
   25   15   25 1     
@<TRIPOS>SUBSTRUCTURE
      1 ****           1
@<TRIPOS>SET
DONOR_HYDROGENS      STATIC     ATOMS    <user>   **** ""
1 25
ATOM$RED        STATIC     ATOMS    COLORGROUP SYSTEM
1 25
