#       Name:                EN300-367353_i002
#       Creating user name   aseyller
#       Creation time:       Fri Apr 21 12:42:46 2023


#       File generated by GOLD software.
#

@<TRIPOS>MOLECULE
EN300-367353_i002|amine_3|mol2|95|dock9
    26    26     1
SMALL
USER_CHARGES


@<TRIPOS>ATOM
      1 C1          25.0427  36.6989  41.3281 C.3            1 <1>                0.0000
      2 O2          26.4550  36.7511  41.6614 O.3            1 <1>                0.0000
      3 C3          27.3252  36.6480  40.6447 C.2            1 <1>                0.0000
      4 O4          26.9204  36.5479  39.5107 O.2            1 <1>                0.0000
      5 C5          28.8073  36.6571  40.9176 C.3            1 <1>                0.0000
      6 N6          29.1568  35.5069  41.7620 N.3            1 <1>                0.0000
      7 C7          29.5586  36.5700  39.6141 C.ar           1 <1>                0.0000
      8 C8          30.3635  35.4769  39.3518 C.ar           1 <1>                0.0000
      9 C9          31.0526  35.3971  38.1564 C.ar           1 <1>                0.0000
     10 C10         30.9367  36.4102  37.2227 C.ar           1 <1>                0.0000
     11 C11         30.1315  37.5025  37.4846 C.ar           1 <1>                0.0000
     12 C12         29.4387  37.5802  38.6785 C.ar           1 <1>                0.0000
     13 C13         30.0056  38.6070  36.4670 C.3            1 <1>                0.0000
     14 F14         28.7456  39.2043  36.5806 F              1 <1>                0.0000
     15 F15         30.9985  39.5660  36.6946 F              1 <1>                0.0000
     16 F16         30.1558  38.0761  35.1815 F              1 <1>                0.0000
     17 H17         24.4508  36.7933  42.2385 H              1 <1>                0.0000
     18 H18         24.7990  37.5167  40.6499 H              1 <1>                0.0000
     19 H19         24.8181  35.7477  40.8457 H              1 <1>                0.0000
     20 H20         29.0765  37.5801  41.4311 H              1 <1>                0.0000
     21 H21         30.4539  34.6855  40.0812 H              1 <1>                0.0000
     22 H22         31.6818  34.5435  37.9518 H              1 <1>                0.0000
     23 H23         31.4758  36.3480  36.2889 H              1 <1>                0.0000
     24 H24         28.8095  38.4338  38.8831 H              1 <1>                0.0000
     25 H25         28.6506  34.6819  41.4769 H              1 <1>                0.0000
     26 H26         30.1522  35.3414  41.7536 H              1 <1>                0.0000
@<TRIPOS>BOND
    1    1    2 1     
    2    1   17 1     
    3    1   18 1     
    4    1   19 1     
    5    2    3 1     
    6    3    4 2     
    7    3    5 1     
    8    5    6 1     
    9    5    7 1     
   10    5   20 1     
   11    6   25 1     
   12    6   26 1     
   13    7    8 ar    
   14    7   12 ar    
   15    8    9 ar    
   16    8   21 1     
   17    9   10 ar    
   18    9   22 1     
   19   10   11 ar    
   20   10   23 1     
   21   11   12 ar    
   22   11   13 1     
   23   12   24 1     
   24   13   14 1     
   25   13   15 1     
   26   13   16 1     
@<TRIPOS>SUBSTRUCTURE
      1 ****           1
@<TRIPOS>SET
DONOR_HYDROGENS      STATIC     ATOMS    <user>   **** ""
2 25 26
ATOM$RED        STATIC     ATOMS    COLORGROUP SYSTEM
2 25 26
@<TRIPOS>COMMENT
> <Gold.Version>
2022.2.0

> <Gold.Id.Protein>
1qkm|1qkm_protein|mol2

> <Gold.Protein.RotatedTorsions>
[  496  491  490  487 ] final  -86.60 input  -89.99 | X-H torsion

> <Gold.Protein.ActiveResidues>
 MET295  LEU298  THR299  LEU301  ALA302  GLU305  TRP335  MET336  LEU339  MET340 
 GLY342  LEU343  ARG346  PHE356  ILE373  ILE376  PHE377  LEU380  LYS471  GLY472 
 MET473  HIS475  LEU476  LEU477  ASN478  MET479  VAL484  VAL487 

> <Gold.Protein.RotatedAtoms>
   36.7260   34.6742   41.1206 H   0  0  0  0  0  0  0  0  0  0  0  0  # atno 496  bound_to 491 

> <Gold.Score>
     Score     S(PLP)   S(hbond)     S(cho)   S(metal)  DE(clash)   DE(tors)     intcor
     47.94     -47.01       1.00       0.00       0.00       2.32       1.15       2.55

> <Gold.PLP.Fitness>
47.9410

> <Gold.PLP.PLP>
-47.0149

> <Gold.PLP.part.hbond>
-1.8308

> <Gold.PLP.part.metal>
0.0000

> <Gold.PLP.part.buried>
-0.3781

> <Gold.PLP.part.nonpolar>
-46.5042

> <Gold.PLP.part.repulsive>
0.5448

> <Gold.PLP.ligand.clash>
2.3186

> <Gold.PLP.ligand.torsion>
1.1532

> <Gold.PLP.Chemscore.Hbond>
1.0000

> <Gold.PLP.Chemscore.CHOScore>
0.0000

> <Gold.PLP.Chemscore.Metal>
0.0000

> <Gold.Chemscore.Hbonds>
donor molecule, donor type, donor heavy atom, donor atom, acceptor molecule, acceptor atom, score
      L1  H     6    26       P1   470  1.00

> <Gold.PLP.Chemscore.Internal.Correction>
2.5512

