#       Name:                EN300-367353_i002
#       Creating user name   aseyller
#       Creation time:       Fri Apr 21 12:42:51 2023


#       File generated by GOLD software.
#

@<TRIPOS>MOLECULE
EN300-367353_i002|amine_3|mol2|95|dock14
    26    26     1
SMALL
USER_CHARGES


@<TRIPOS>ATOM
      1 C1          33.1292  37.0641  34.9729 C.3            1 <1>                0.0000
      2 O2          32.3877  37.7435  36.0203 O.3            1 <1>                0.0000
      3 C3          31.2170  38.3014  35.6743 C.2            1 <1>                0.0000
      4 O4          30.9022  38.3723  34.5100 O.2            1 <1>                0.0000
      5 C5          30.2950  38.8393  36.7382 C.3            1 <1>                0.0000
      6 N6          29.0769  39.3672  36.1093 N.3            1 <1>                0.0000
      7 C7          29.9284  37.7318  37.6921 C.ar           1 <1>                0.0000
      8 C8          30.9079  36.8856  38.1782 C.ar           1 <1>                0.0000
      9 C9          30.5717  35.8698  39.0530 C.ar           1 <1>                0.0000
     10 C10         29.2560  35.7001  39.4424 C.ar           1 <1>                0.0000
     11 C11         28.2770  36.5464  38.9571 C.ar           1 <1>                0.0000
     12 C12         28.6140  37.5652  38.0854 C.ar           1 <1>                0.0000
     13 C13         26.8428  36.3609  39.3811 C.3            1 <1>                0.0000
     14 F14         26.1856  37.5957  39.3555 F              1 <1>                0.0000
     15 F15         26.2076  35.4763  38.5029 F              1 <1>                0.0000
     16 F16         26.8038  35.8387  40.6784 F              1 <1>                0.0000
     17 H17         34.0533  36.6597  35.3858 H              1 <1>                0.0000
     18 H18         32.5254  36.2513  34.5691 H              1 <1>                0.0000
     19 H19         33.3653  37.7711  34.1777 H              1 <1>                0.0000
     20 H20         30.7973  39.6378  37.2844 H              1 <1>                0.0000
     21 H21         31.9357  37.0184  37.8740 H              1 <1>                0.0000
     22 H22         31.3367  35.2085  39.4322 H              1 <1>                0.0000
     23 H23         28.9933  34.9057  40.1255 H              1 <1>                0.0000
     24 H24         27.8490  38.2266  37.7063 H              1 <1>                0.0000
     25 H25         29.0013  39.0583  35.1517 H              1 <1>                0.0000
     26 H26         28.2566  39.1103  36.6379 H              1 <1>                0.0000
@<TRIPOS>BOND
    1    1    2 1     
    2    1   17 1     
    3    1   18 1     
    4    1   19 1     
    5    2    3 1     
    6    3    4 2     
    7    3    5 1     
    8    5    6 1     
    9    5    7 1     
   10    5   20 1     
   11    6   25 1     
   12    6   26 1     
   13    7    8 ar    
   14    7   12 ar    
   15    8    9 ar    
   16    8   21 1     
   17    9   10 ar    
   18    9   22 1     
   19   10   11 ar    
   20   10   23 1     
   21   11   12 ar    
   22   11   13 1     
   23   12   24 1     
   24   13   14 1     
   25   13   15 1     
   26   13   16 1     
@<TRIPOS>SUBSTRUCTURE
      1 ****           1
@<TRIPOS>SET
DONOR_HYDROGENS      STATIC     ATOMS    <user>   **** ""
2 25 26
ATOM$RED        STATIC     ATOMS    COLORGROUP SYSTEM
2 25 26
@<TRIPOS>COMMENT
> <Gold.Version>
2022.2.0

> <Gold.Id.Protein>
1qkm|1qkm_protein|mol2

> <Gold.Protein.RotatedTorsions>
[  496  491  490  487 ] final  -62.56 input  -89.99 | X-H torsion

> <Gold.Protein.ActiveResidues>
 MET295  LEU298  THR299  LEU301  ALA302  GLU305  TRP335  MET336  LEU339  MET340 
 GLY342  LEU343  ARG346  PHE356  ILE373  ILE376  PHE377  LEU380  LYS471  GLY472 
 MET473  HIS475  LEU476  LEU477  ASN478  MET479  VAL484  VAL487 

> <Gold.Protein.RotatedAtoms>
   36.5171   34.7348   41.4477 H   0  0  0  0  0  0  0  0  0  0  0  0  # atno 496  bound_to 491 

> <Gold.Score>
     Score     S(PLP)   S(hbond)     S(cho)   S(metal)  DE(clash)   DE(tors)     intcor
     47.73     -49.95       0.00       0.00       0.00       1.65       1.56       2.55

> <Gold.PLP.Fitness>
47.7322

> <Gold.PLP.PLP>
-49.9520

> <Gold.PLP.part.hbond>
0.0000

> <Gold.PLP.part.metal>
0.0000

> <Gold.PLP.part.buried>
-4.5354

> <Gold.PLP.part.nonpolar>
-45.4991

> <Gold.PLP.part.repulsive>
0.0752

> <Gold.PLP.ligand.clash>
1.6519

> <Gold.PLP.ligand.torsion>
1.5595

> <Gold.PLP.Chemscore.Hbond>
0.0000

> <Gold.PLP.Chemscore.CHOScore>
0.0000

> <Gold.PLP.Chemscore.Metal>
0.0000

> <Gold.PLP.Chemscore.Internal.Correction>
2.5512

