#       Name:                EN300-367353_i002
#       Creating user name   aseyller
#       Creation time:       Fri Apr 21 12:42:41 2023


#       File generated by GOLD software.
#

@<TRIPOS>MOLECULE
EN300-367353_i002|amine_3|mol2|95|dock3
    26    26     1
SMALL
USER_CHARGES


@<TRIPOS>ATOM
      1 C1          25.8824  36.8187  39.1062 C.3            1 <1>                0.0000
      2 O2          27.1504  36.3881  39.6675 O.3            1 <1>                0.0000
      3 C3          28.2632  36.9213  39.1392 C.2            1 <1>                0.0000
      4 O4          28.1951  37.5883  38.1341 O.2            1 <1>                0.0000
      5 C5          29.5975  36.6880  39.7997 C.3            1 <1>                0.0000
      6 N6          29.4301  35.7626  40.9283 N.3            1 <1>                0.0000
      7 C7          30.5557  36.0932  38.8002 C.ar           1 <1>                0.0000
      8 C8          31.0318  34.8076  38.9795 C.ar           1 <1>                0.0000
      9 C9          31.9106  34.2620  38.0628 C.ar           1 <1>                0.0000
     10 C10         32.3132  35.0017  36.9662 C.ar           1 <1>                0.0000
     11 C11         31.8365  36.2864  36.7866 C.ar           1 <1>                0.0000
     12 C12         30.9541  36.8306  37.7012 C.ar           1 <1>                0.0000
     13 C13         32.2758  37.0929  35.5916 C.3            1 <1>                0.0000
     14 F14         32.7042  38.3561  36.0135 F              1 <1>                0.0000
     15 F15         33.3285  36.4349  34.9465 F              1 <1>                0.0000
     16 F16         31.2026  37.2362  34.7056 F              1 <1>                0.0000
     17 H17         25.0663  36.3131  39.6221 H              1 <1>                0.0000
     18 H18         25.7778  37.8967  39.2297 H              1 <1>                0.0000
     19 H19         25.8513  36.5698  38.0455 H              1 <1>                0.0000
     20 H20         29.9938  37.6362  40.1630 H              1 <1>                0.0000
     21 H21         30.7173  34.2298  39.8360 H              1 <1>                0.0000
     22 H22         32.2831  33.2580  38.2032 H              1 <1>                0.0000
     23 H23         33.0005  34.5755  36.2503 H              1 <1>                0.0000
     24 H24         30.5816  37.8346  37.5608 H              1 <1>                0.0000
     25 H25         29.2243  34.8297  40.6035 H              1 <1>                0.0000
     26 H26         30.2451  35.7668  41.5232 H              1 <1>                0.0000
@<TRIPOS>BOND
    1    1    2 1     
    2    1   17 1     
    3    1   18 1     
    4    1   19 1     
    5    2    3 1     
    6    3    4 2     
    7    3    5 1     
    8    5    6 1     
    9    5    7 1     
   10    5   20 1     
   11    6   25 1     
   12    6   26 1     
   13    7    8 ar    
   14    7   12 ar    
   15    8    9 ar    
   16    8   21 1     
   17    9   10 ar    
   18    9   22 1     
   19   10   11 ar    
   20   10   23 1     
   21   11   12 ar    
   22   11   13 1     
   23   12   24 1     
   24   13   14 1     
   25   13   15 1     
   26   13   16 1     
@<TRIPOS>SUBSTRUCTURE
      1 ****           1
@<TRIPOS>SET
DONOR_HYDROGENS      STATIC     ATOMS    <user>   **** ""
2 25 26
ATOM$RED        STATIC     ATOMS    COLORGROUP SYSTEM
2 25 26
@<TRIPOS>COMMENT
> <Gold.Version>
2022.2.0

> <Gold.Id.Protein>
1qkm|1qkm_protein|mol2

> <Gold.Protein.RotatedTorsions>
[  496  491  490  487 ] final -128.55 input  -89.99 | X-H torsion

> <Gold.Protein.ActiveResidues>
 MET295  LEU298  THR299  LEU301  ALA302  GLU305  TRP335  MET336  LEU339  MET340 
 GLY342  LEU343  ARG346  PHE356  ILE373  ILE376  PHE377  LEU380  LYS471  GLY472 
 MET473  HIS475  LEU476  LEU477  ASN478  MET479  VAL484  VAL487 

> <Gold.Protein.RotatedAtoms>
   37.0939   34.2412   40.7557 H   0  0  0  0  0  0  0  0  0  0  0  0  # atno 496  bound_to 491 

> <Gold.Score>
     Score     S(PLP)   S(hbond)     S(cho)   S(metal)  DE(clash)   DE(tors)     intcor
     52.80     -52.69       1.00       0.00       0.00       4.53       0.47       2.58

> <Gold.PLP.Fitness>
52.7956

> <Gold.PLP.PLP>
-52.6917

> <Gold.PLP.part.hbond>
-1.0000

> <Gold.PLP.part.metal>
0.0000

> <Gold.PLP.part.buried>
-4.0049

> <Gold.PLP.part.nonpolar>
-48.1265

> <Gold.PLP.part.repulsive>
0.0333

> <Gold.PLP.ligand.clash>
4.5297

> <Gold.PLP.ligand.torsion>
0.4728

> <Gold.PLP.Chemscore.Hbond>
1.0000

> <Gold.PLP.Chemscore.CHOScore>
0.0000

> <Gold.PLP.Chemscore.Metal>
0.0000

> <Gold.Chemscore.Hbonds>
donor molecule, donor type, donor heavy atom, donor atom, acceptor molecule, acceptor atom, score
      L1  H     6    26       P1   470  1.00

> <Gold.PLP.Chemscore.Internal.Correction>
2.5792

