#       Name:                EN300-367353_i002
#       Creating user name   aseyller
#       Creation time:       Fri Apr 21 12:42:56 2023


#       File generated by GOLD software.
#

@<TRIPOS>MOLECULE
EN300-367353_i002|amine_3|mol2|95|dock19
    26    26     1
SMALL
USER_CHARGES


@<TRIPOS>ATOM
      1 C1          26.0976  36.5935  38.8939 C.3            1 <1>                0.0000
      2 O2          27.4932  36.3018  38.6191 O.3            1 <1>                0.0000
      3 C3          28.3221  36.2416  39.6732 C.2            1 <1>                0.0000
      4 O4          27.9051  35.8862  40.7501 O.2            1 <1>                0.0000
      5 C5          29.7728  36.6172  39.5135 C.3            1 <1>                0.0000
      6 N6          30.5993  35.4031  39.5452 N.3            1 <1>                0.0000
      7 C7          29.9668  37.3227  38.1961 C.ar           1 <1>                0.0000
      8 C8          29.1335  38.3677  37.8422 C.ar           1 <1>                0.0000
      9 C9          29.3115  39.0148  36.6339 C.ar           1 <1>                0.0000
     10 C10         30.3231  38.6173  35.7793 C.ar           1 <1>                0.0000
     11 C11         31.1566  37.5733  36.1334 C.ar           1 <1>                0.0000
     12 C12         30.9813  36.9289  37.3440 C.ar           1 <1>                0.0000
     13 C13         32.2588  37.1398  35.2016 C.3            1 <1>                0.0000
     14 F14         33.4972  37.3284  35.8246 F              1 <1>                0.0000
     15 F15         32.0970  35.7865  34.8857 F              1 <1>                0.0000
     16 F16         32.2055  37.9019  34.0297 F              1 <1>                0.0000
     17 H17         25.5395  36.6130  37.9579 H              1 <1>                0.0000
     18 H18         25.6868  35.8224  39.5458 H              1 <1>                0.0000
     19 H19         26.0188  37.5637  39.3842 H              1 <1>                0.0000
     20 H20         30.0684  37.2794  40.3272 H              1 <1>                0.0000
     21 H21         28.3434  38.6781  38.5098 H              1 <1>                0.0000
     22 H22         28.6602  39.8306  36.3572 H              1 <1>                0.0000
     23 H23         30.4616  39.1226  34.8348 H              1 <1>                0.0000
     24 H24         31.6327  36.1130  37.6207 H              1 <1>                0.0000
     25 H25         31.2560  35.3926  38.7792 H              1 <1>                0.0000
     26 H26         31.0749  35.3125  40.4305 H              1 <1>                0.0000
@<TRIPOS>BOND
    1    1    2 1     
    2    1   17 1     
    3    1   18 1     
    4    1   19 1     
    5    2    3 1     
    6    3    4 2     
    7    3    5 1     
    8    5    6 1     
    9    5    7 1     
   10    5   20 1     
   11    6   25 1     
   12    6   26 1     
   13    7    8 ar    
   14    7   12 ar    
   15    8    9 ar    
   16    8   21 1     
   17    9   10 ar    
   18    9   22 1     
   19   10   11 ar    
   20   10   23 1     
   21   11   12 ar    
   22   11   13 1     
   23   12   24 1     
   24   13   14 1     
   25   13   15 1     
   26   13   16 1     
@<TRIPOS>SUBSTRUCTURE
      1 ****           1
@<TRIPOS>SET
DONOR_HYDROGENS      STATIC     ATOMS    <user>   **** ""
2 25 26
ATOM$RED        STATIC     ATOMS    COLORGROUP SYSTEM
2 25 26
@<TRIPOS>COMMENT
> <Gold.Version>
2022.2.0

> <Gold.Id.Protein>
1qkm|1qkm_protein|mol2

> <Gold.Protein.RotatedTorsions>
[  496  491  490  487 ] final   46.14 input  -89.99 | X-H torsion

> <Gold.Protein.ActiveResidues>
 MET295  LEU298  THR299  LEU301  ALA302  GLU305  TRP335  MET336  LEU339  MET340 
 GLY342  LEU343  ARG346  PHE356  ILE373  ILE376  PHE377  LEU380  LYS471  GLY472 
 MET473  HIS475  LEU476  LEU477  ASN478  MET479  VAL484  VAL487 

> <Gold.Protein.RotatedAtoms>
   36.4449   33.5100   42.3666 H   0  0  0  0  0  0  0  0  0  0  0  0  # atno 496  bound_to 491 

> <Gold.Score>
     Score     S(PLP)   S(hbond)     S(cho)   S(metal)  DE(clash)   DE(tors)     intcor
     45.23     -46.06       1.00       0.00       0.00       4.56       0.91       2.55

> <Gold.PLP.Fitness>
45.2271

> <Gold.PLP.PLP>
-46.0609

> <Gold.PLP.part.hbond>
-1.0000

> <Gold.PLP.part.metal>
0.0000

> <Gold.PLP.part.buried>
-2.6492

> <Gold.PLP.part.nonpolar>
-43.0691

> <Gold.PLP.part.repulsive>
0.1043

> <Gold.PLP.ligand.clash>
4.5582

> <Gold.PLP.ligand.torsion>
0.9134

> <Gold.PLP.Chemscore.Hbond>
1.0000

> <Gold.PLP.Chemscore.CHOScore>
0.0000

> <Gold.PLP.Chemscore.Metal>
0.0000

> <Gold.Chemscore.Hbonds>
donor molecule, donor type, donor heavy atom, donor atom, acceptor molecule, acceptor atom, score
      L1  H     6    26       P1   470  1.00

> <Gold.PLP.Chemscore.Internal.Correction>
2.5512

