#       Name:                EN300-367353_i002
#       Creating user name   aseyller
#       Creation time:       Fri Apr 21 12:42:54 2023


#       File generated by GOLD software.
#

@<TRIPOS>MOLECULE
EN300-367353_i002|amine_3|mol2|95|dock17
    26    26     1
SMALL
USER_CHARGES


@<TRIPOS>ATOM
      1 C1          26.1439  37.0924  39.9558 C.3            1 <1>                0.0000
      2 O2          27.4465  36.8040  39.3828 O.3            1 <1>                0.0000
      3 C3          28.3985  36.3675  40.2225 C.2            1 <1>                0.0000
      4 O4          28.3776  36.6989  41.3842 O.2            1 <1>                0.0000
      5 C5          29.4933  35.4641  39.7162 C.3            1 <1>                0.0000
      6 N6          28.8972  34.2908  39.0634 N.3            1 <1>                0.0000
      7 C7          30.3439  36.2134  38.7233 C.ar           1 <1>                0.0000
      8 C8          31.6546  35.8297  38.5074 C.ar           1 <1>                0.0000
      9 C9          32.4348  36.5170  37.5968 C.ar           1 <1>                0.0000
     10 C10         31.9045  37.5879  36.9015 C.ar           1 <1>                0.0000
     11 C11         30.5941  37.9709  37.1167 C.ar           1 <1>                0.0000
     12 C12         29.8123  37.2807  38.0243 C.ar           1 <1>                0.0000
     13 C13         30.0163  39.1386  36.3591 C.3            1 <1>                0.0000
     14 F14         30.1120  38.8960  34.9846 F              1 <1>                0.0000
     15 F15         28.6723  39.3036  36.7111 F              1 <1>                0.0000
     16 F16         30.7280  40.2999  36.6784 F              1 <1>                0.0000
     17 H17         25.4698  37.4356  39.1711 H              1 <1>                0.0000
     18 H18         25.7398  36.1889  40.4126 H              1 <1>                0.0000
     19 H19         26.2443  37.8691  40.7139 H              1 <1>                0.0000
     20 H20         30.1121  35.1392  40.5526 H              1 <1>                0.0000
     21 H21         32.0688  34.9931  39.0506 H              1 <1>                0.0000
     22 H22         33.4588  36.2177  37.4287 H              1 <1>                0.0000
     23 H23         32.5145  38.1254  36.1905 H              1 <1>                0.0000
     24 H24         28.7883  37.5800  38.1925 H              1 <1>                0.0000
     25 H25         29.0469  33.4570  39.6115 H              1 <1>                0.0000
     26 H26         27.9144  34.4358  38.8866 H              1 <1>                0.0000
@<TRIPOS>BOND
    1    1    2 1     
    2    1   17 1     
    3    1   18 1     
    4    1   19 1     
    5    2    3 1     
    6    3    4 2     
    7    3    5 1     
    8    5    6 1     
    9    5    7 1     
   10    5   20 1     
   11    6   25 1     
   12    6   26 1     
   13    7    8 ar    
   14    7   12 ar    
   15    8    9 ar    
   16    8   21 1     
   17    9   10 ar    
   18    9   22 1     
   19   10   11 ar    
   20   10   23 1     
   21   11   12 ar    
   22   11   13 1     
   23   12   24 1     
   24   13   14 1     
   25   13   15 1     
   26   13   16 1     
@<TRIPOS>SUBSTRUCTURE
      1 ****           1
@<TRIPOS>SET
DONOR_HYDROGENS      STATIC     ATOMS    <user>   **** ""
2 25 26
ATOM$RED        STATIC     ATOMS    COLORGROUP SYSTEM
2 25 26
@<TRIPOS>COMMENT
> <Gold.Version>
2022.2.0

> <Gold.Id.Protein>
1qkm|1qkm_protein|mol2

> <Gold.Protein.RotatedTorsions>
[  496  491  490  487 ] final  -12.72 input  -89.99 | X-H torsion

> <Gold.Protein.ActiveResidues>
 MET295  LEU298  THR299  LEU301  ALA302  GLU305  TRP335  MET336  LEU339  MET340 
 GLY342  LEU343  ARG346  PHE356  ILE373  ILE376  PHE377  LEU380  LYS471  GLY472 
 MET473  HIS475  LEU476  LEU477  ASN478  MET479  VAL484  VAL487 

> <Gold.Protein.RotatedAtoms>
   36.2658   34.3840   42.1152 H   0  0  0  0  0  0  0  0  0  0  0  0  # atno 496  bound_to 491 

> <Gold.Score>
     Score     S(PLP)   S(hbond)     S(cho)   S(metal)  DE(clash)   DE(tors)     intcor
     44.29     -46.97       0.00       0.00       0.00       2.95       1.14       2.55

> <Gold.PLP.Fitness>
44.2861

> <Gold.PLP.PLP>
-46.9715

> <Gold.PLP.part.hbond>
0.0000

> <Gold.PLP.part.metal>
0.0000

> <Gold.PLP.part.buried>
-2.0271

> <Gold.PLP.part.nonpolar>
-45.7209

> <Gold.PLP.part.repulsive>
0.1146

> <Gold.PLP.ligand.clash>
2.9496

> <Gold.PLP.ligand.torsion>
1.1435

> <Gold.PLP.Chemscore.Hbond>
0.0000

> <Gold.PLP.Chemscore.CHOScore>
0.0000

> <Gold.PLP.Chemscore.Metal>
0.0000

> <Gold.PLP.Chemscore.Internal.Correction>
2.5512

