#       Name:                EN300-367353_i002
#       Creating user name   aseyller
#       Creation time:       Fri Apr 21 12:42:52 2023


#       File generated by GOLD software.
#

@<TRIPOS>MOLECULE
EN300-367353_i002|amine_3|mol2|95|dock15
    26    26     1
SMALL
USER_CHARGES


@<TRIPOS>ATOM
      1 C1          31.8172  33.1217  38.1933 C.3            1 <1>                0.0000
      2 O2          30.5524  33.7789  38.4704 O.3            1 <1>                0.0000
      3 C3          30.6073  35.0482  38.9037 C.2            1 <1>                0.0000
      4 O4          31.6523  35.6537  38.8691 O.2            1 <1>                0.0000
      5 C5          29.3655  35.7179  39.4334 C.3            1 <1>                0.0000
      6 N6          29.6336  36.2570  40.7733 N.3            1 <1>                0.0000
      7 C7          28.9679  36.8408  38.5104 C.ar           1 <1>                0.0000
      8 C8          27.6655  37.3049  38.5073 C.ar           1 <1>                0.0000
      9 C9          27.3008  38.3347  37.6608 C.ar           1 <1>                0.0000
     10 C10         28.2384  38.9012  36.8173 C.ar           1 <1>                0.0000
     11 C11         29.5405  38.4379  36.8209 C.ar           1 <1>                0.0000
     12 C12         29.9064  37.4106  37.6709 C.ar           1 <1>                0.0000
     13 C13         30.5624  39.0550  35.9011 C.3            1 <1>                0.0000
     14 F14         30.3534  40.4366  35.8318 F              1 <1>                0.0000
     15 F15         31.8469  38.8018  36.3944 F              1 <1>                0.0000
     16 F16         30.4356  38.4995  34.6234 F              1 <1>                0.0000
     17 H17         31.6304  32.1037  37.8516 H              1 <1>                0.0000
     18 H18         32.3510  33.6728  37.4190 H              1 <1>                0.0000
     19 H19         32.4196  33.0954  39.1013 H              1 <1>                0.0000
     20 H20         28.5561  34.9901  39.4897 H              1 <1>                0.0000
     21 H21         26.9331  36.8624  39.1663 H              1 <1>                0.0000
     22 H22         26.2833  38.6968  37.6580 H              1 <1>                0.0000
     23 H23         27.9532  39.7055  36.1553 H              1 <1>                0.0000
     24 H24         30.9239  37.0486  37.6737 H              1 <1>                0.0000
     25 H25         28.7737  36.4287  41.2727 H              1 <1>                0.0000
     26 H26         30.2387  35.6418  41.2962 H              1 <1>                0.0000
@<TRIPOS>BOND
    1    1    2 1     
    2    1   17 1     
    3    1   18 1     
    4    1   19 1     
    5    2    3 1     
    6    3    4 2     
    7    3    5 1     
    8    5    6 1     
    9    5    7 1     
   10    5   20 1     
   11    6   25 1     
   12    6   26 1     
   13    7    8 ar    
   14    7   12 ar    
   15    8    9 ar    
   16    8   21 1     
   17    9   10 ar    
   18    9   22 1     
   19   10   11 ar    
   20   10   23 1     
   21   11   12 ar    
   22   11   13 1     
   23   12   24 1     
   24   13   14 1     
   25   13   15 1     
   26   13   16 1     
@<TRIPOS>SUBSTRUCTURE
      1 ****           1
@<TRIPOS>SET
DONOR_HYDROGENS      STATIC     ATOMS    <user>   **** ""
2 25 26
ATOM$RED        STATIC     ATOMS    COLORGROUP SYSTEM
2 25 26
@<TRIPOS>COMMENT
> <Gold.Version>
2022.2.0

> <Gold.Id.Protein>
1qkm|1qkm_protein|mol2

> <Gold.Protein.RotatedTorsions>
[  496  491  490  487 ] final  -13.81 input  -89.99 | X-H torsion

> <Gold.Protein.ActiveResidues>
 MET295  LEU298  THR299  LEU301  ALA302  GLU305  TRP335  MET336  LEU339  MET340 
 GLY342  LEU343  ARG346  PHE356  ILE373  ILE376  PHE377  LEU380  LYS471  GLY472 
 MET473  HIS475  LEU476  LEU477  ASN478  MET479  VAL484  VAL487 

> <Gold.Protein.RotatedAtoms>
   36.2675   34.3975   42.1034 H   0  0  0  0  0  0  0  0  0  0  0  0  # atno 496  bound_to 491 

> <Gold.Score>
     Score     S(PLP)   S(hbond)     S(cho)   S(metal)  DE(clash)   DE(tors)     intcor
     48.46     -47.88       1.00       0.00       0.00       1.54       1.72       2.55

> <Gold.PLP.Fitness>
48.4611

> <Gold.PLP.PLP>
-47.8833

> <Gold.PLP.part.hbond>
-1.0000

> <Gold.PLP.part.metal>
0.0000

> <Gold.PLP.part.buried>
-2.1116

> <Gold.PLP.part.nonpolar>
-45.3952

> <Gold.PLP.part.repulsive>
0.1438

> <Gold.PLP.ligand.clash>
1.5353

> <Gold.PLP.ligand.torsion>
1.7190

> <Gold.PLP.Chemscore.Hbond>
1.0000

> <Gold.PLP.Chemscore.CHOScore>
0.0000

> <Gold.PLP.Chemscore.Metal>
0.0000

> <Gold.Chemscore.Hbonds>
donor molecule, donor type, donor heavy atom, donor atom, acceptor molecule, acceptor atom, score
      L1  H     6    26       P1   470  1.00

> <Gold.PLP.Chemscore.Internal.Correction>
2.5512

