#       Name:                EN300-367353_i002
#       Creating user name   aseyller
#       Creation time:       Fri Apr 21 12:42:55 2023


#       File generated by GOLD software.
#

@<TRIPOS>MOLECULE
EN300-367353_i002|amine_3|mol2|95|dock18
    26    26     1
SMALL
USER_CHARGES


@<TRIPOS>ATOM
      1 C1          32.4411  35.0773  37.6677 C.3            1 <1>                0.0000
      2 O2          31.4813  35.6384  38.6018 O.3            1 <1>                0.0000
      3 C3          30.3940  34.9003  38.8751 C.2            1 <1>                0.0000
      4 O4          30.3455  33.7442  38.5273 O.2            1 <1>                0.0000
      5 C5          29.2337  35.5136  39.6158 C.3            1 <1>                0.0000
      6 N6          29.6990  36.0381  40.9067 N.3            1 <1>                0.0000
      7 C7          28.6526  36.6373  38.7969 C.ar           1 <1>                0.0000
      8 C8          27.2883  36.8618  38.8009 C.ar           1 <1>                0.0000
      9 C9          26.7553  37.8924  38.0499 C.ar           1 <1>                0.0000
     10 C10         27.5864  38.6991  37.2950 C.ar           1 <1>                0.0000
     11 C11         28.9502  38.4753  37.2917 C.ar           1 <1>                0.0000
     12 C12         29.4839  37.4471  38.0463 C.ar           1 <1>                0.0000
     13 C13         29.8561  39.3544  36.4683 C.3            1 <1>                0.0000
     14 F14         31.1093  39.4393  37.0843 F              1 <1>                0.0000
     15 F15         30.0013  38.8062  35.1894 F              1 <1>                0.0000
     16 F16         29.2986  40.6335  36.3670 F              1 <1>                0.0000
     17 H17         33.2694  35.7734  37.5360 H              1 <1>                0.0000
     18 H18         32.8191  34.1326  38.0588 H              1 <1>                0.0000
     19 H19         31.9554  34.9047  36.7074 H              1 <1>                0.0000
     20 H20         28.4695  34.7552  39.7859 H              1 <1>                0.0000
     21 H21         26.6391  36.2316  39.3907 H              1 <1>                0.0000
     22 H22         25.6895  38.0673  38.0526 H              1 <1>                0.0000
     23 H23         27.1697  39.5040  36.7076 H              1 <1>                0.0000
     24 H24         30.5496  37.2722  38.0437 H              1 <1>                0.0000
     25 H25         30.6016  35.6569  41.1477 H              1 <1>                0.0000
     26 H26         29.7227  37.0469  40.8996 H              1 <1>                0.0000
@<TRIPOS>BOND
    1    1    2 1     
    2    1   17 1     
    3    1   18 1     
    4    1   19 1     
    5    2    3 1     
    6    3    4 2     
    7    3    5 1     
    8    5    6 1     
    9    5    7 1     
   10    5   20 1     
   11    6   25 1     
   12    6   26 1     
   13    7    8 ar    
   14    7   12 ar    
   15    8    9 ar    
   16    8   21 1     
   17    9   10 ar    
   18    9   22 1     
   19   10   11 ar    
   20   10   23 1     
   21   11   12 ar    
   22   11   13 1     
   23   12   24 1     
   24   13   14 1     
   25   13   15 1     
   26   13   16 1     
@<TRIPOS>SUBSTRUCTURE
      1 ****           1
@<TRIPOS>SET
DONOR_HYDROGENS      STATIC     ATOMS    <user>   **** ""
2 25 26
ATOM$RED        STATIC     ATOMS    COLORGROUP SYSTEM
2 25 26
@<TRIPOS>COMMENT
> <Gold.Version>
2022.2.0

> <Gold.Id.Protein>
1qkm|1qkm_protein|mol2

> <Gold.Protein.RotatedTorsions>
[  496  491  490  487 ] final   42.41 input  -89.99 | X-H torsion

> <Gold.Protein.ActiveResidues>
 MET295  LEU298  THR299  LEU301  ALA302  GLU305  TRP335  MET336  LEU339  MET340 
 GLY342  LEU343  ARG346  PHE356  ILE373  ILE376  PHE377  LEU380  LYS471  GLY472 
 MET473  HIS475  LEU476  LEU477  ASN478  MET479  VAL484  VAL487 

> <Gold.Protein.RotatedAtoms>
   36.4194   33.5651   42.3756 H   0  0  0  0  0  0  0  0  0  0  0  0  # atno 496  bound_to 491 

> <Gold.Score>
     Score     S(PLP)   S(hbond)     S(cho)   S(metal)  DE(clash)   DE(tors)     intcor
     48.22     -46.91       1.00       0.00       0.00       0.36       1.94       2.55

> <Gold.PLP.Fitness>
48.2246

> <Gold.PLP.PLP>
-46.9148

> <Gold.PLP.part.hbond>
-1.0000

> <Gold.PLP.part.metal>
0.0000

> <Gold.PLP.part.buried>
-2.6067

> <Gold.PLP.part.nonpolar>
-43.9210

> <Gold.PLP.part.repulsive>
0.1266

> <Gold.PLP.ligand.clash>
0.3598

> <Gold.PLP.ligand.torsion>
1.9408

> <Gold.PLP.Chemscore.Hbond>
1.0000

> <Gold.PLP.Chemscore.CHOScore>
0.0000

> <Gold.PLP.Chemscore.Metal>
0.0000

> <Gold.Chemscore.Hbonds>
donor molecule, donor type, donor heavy atom, donor atom, acceptor molecule, acceptor atom, score
      L1  H     6    25       P1   470  1.00

> <Gold.PLP.Chemscore.Internal.Correction>
2.5512

