#       Name:                EN300-367353_i002
#       Creating user name   aseyller
#       Creation time:       Fri Apr 21 12:42:49 2023


#       File generated by GOLD software.
#

@<TRIPOS>MOLECULE
EN300-367353_i002|amine_3|mol2|95|dock12
    26    26     1
SMALL
USER_CHARGES


@<TRIPOS>ATOM
      1 C1          32.9537  36.7296  34.9028 C.3            1 <1>                0.0000
      2 O2          32.4238  37.5165  36.0021 O.3            1 <1>                0.0000
      3 C3          31.2011  38.0457  35.8388 C.2            1 <1>                0.0000
      4 O4          30.5237  37.7209  34.8925 O.2            1 <1>                0.0000
      5 C5          30.6732  39.0448  36.8359 C.3            1 <1>                0.0000
      6 N6          30.4329  40.3282  36.1627 N.3            1 <1>                0.0000
      7 C7          29.3816  38.5353  37.4218 C.ar           1 <1>                0.0000
      8 C8          28.1727  39.0098  36.9474 C.ar           1 <1>                0.0000
      9 C9          26.9881  38.5425  37.4848 C.ar           1 <1>                0.0000
     10 C10         27.0121  37.6005  38.4964 C.ar           1 <1>                0.0000
     11 C11         28.2205  37.1256  38.9701 C.ar           1 <1>                0.0000
     12 C12         29.4053  37.5897  38.4295 C.ar           1 <1>                0.0000
     13 C13         28.2465  36.0991  40.0732 C.3            1 <1>                0.0000
     14 F14         28.9350  36.6167  41.1756 F              1 <1>                0.0000
     15 F15         26.9360  35.7838  40.4478 F              1 <1>                0.0000
     16 F16         28.8928  34.9440  39.6202 F              1 <1>                0.0000
     17 H17         33.9458  36.3618  35.1645 H              1 <1>                0.0000
     18 H18         32.2925  35.8850  34.7088 H              1 <1>                0.0000
     19 H19         33.0205  37.3513  34.0101 H              1 <1>                0.0000
     20 H20         31.4038  39.1836  37.6328 H              1 <1>                0.0000
     21 H21         28.1540  39.7456  36.1571 H              1 <1>                0.0000
     22 H22         26.0438  38.9136  37.1147 H              1 <1>                0.0000
     23 H23         26.0863  37.2360  38.9168 H              1 <1>                0.0000
     24 H24         30.3496  37.2186  38.7997 H              1 <1>                0.0000
     25 H25         29.7648  40.8852  36.6741 H              1 <1>                0.0000
     26 H26         31.2963  40.8328  36.0276 H              1 <1>                0.0000
@<TRIPOS>BOND
    1    1    2 1     
    2    1   17 1     
    3    1   18 1     
    4    1   19 1     
    5    2    3 1     
    6    3    4 2     
    7    3    5 1     
    8    5    6 1     
    9    5    7 1     
   10    5   20 1     
   11    6   25 1     
   12    6   26 1     
   13    7    8 ar    
   14    7   12 ar    
   15    8    9 ar    
   16    8   21 1     
   17    9   10 ar    
   18    9   22 1     
   19   10   11 ar    
   20   10   23 1     
   21   11   12 ar    
   22   11   13 1     
   23   12   24 1     
   24   13   14 1     
   25   13   15 1     
   26   13   16 1     
@<TRIPOS>SUBSTRUCTURE
      1 ****           1
@<TRIPOS>SET
DONOR_HYDROGENS      STATIC     ATOMS    <user>   **** ""
2 25 26
ATOM$RED        STATIC     ATOMS    COLORGROUP SYSTEM
2 25 26
@<TRIPOS>COMMENT
> <Gold.Version>
2022.2.0

> <Gold.Id.Protein>
1qkm|1qkm_protein|mol2

> <Gold.Protein.RotatedTorsions>
[  496  491  490  487 ] final  -89.39 input  -89.99 | X-H torsion

> <Gold.Protein.ActiveResidues>
 MET295  LEU298  THR299  LEU301  ALA302  GLU305  TRP335  MET336  LEU339  MET340 
 GLY342  LEU343  ARG346  PHE356  ILE373  ILE376  PHE377  LEU380  LYS471  GLY472 
 MET473  HIS475  LEU476  LEU477  ASN478  MET479  VAL484  VAL487 

> <Gold.Protein.RotatedAtoms>
   36.7517   34.6573   41.0866 H   0  0  0  0  0  0  0  0  0  0  0  0  # atno 496  bound_to 491 

> <Gold.Score>
     Score     S(PLP)   S(hbond)     S(cho)   S(metal)  DE(clash)   DE(tors)     intcor
     47.62     -50.01       0.00       0.00       0.00       3.63       0.66       2.55

> <Gold.PLP.Fitness>
47.6215

> <Gold.PLP.PLP>
-50.0102

> <Gold.PLP.part.hbond>
0.0000

> <Gold.PLP.part.metal>
0.0000

> <Gold.PLP.part.buried>
-4.1933

> <Gold.PLP.part.nonpolar>
-46.0039

> <Gold.PLP.part.repulsive>
0.0825

> <Gold.PLP.ligand.clash>
3.6269

> <Gold.PLP.ligand.torsion>
0.6565

> <Gold.PLP.Chemscore.Hbond>
0.0000

> <Gold.PLP.Chemscore.CHOScore>
0.0000

> <Gold.PLP.Chemscore.Metal>
0.0000

> <Gold.PLP.Chemscore.Internal.Correction>
2.5512

