#       Name:                EN300-367353_i002
#       Creating user name   aseyller
#       Creation time:       Fri Apr 21 12:42:39 2023


#       File generated by GOLD software.
#

@<TRIPOS>MOLECULE
EN300-367353_i002
    26    26     1
SMALL
USER_CHARGES


@<TRIPOS>ATOM
      1 C1           2.9044   2.5232   0.8161 C.3            1 <1>                0.0000
      2 O2           1.9905   1.8178  -0.0646 O.3            1 <1>                0.0000
      3 C3           2.1814   0.4971  -0.2095 C.2            1 <1>                0.0000
      4 O4           3.0822  -0.0514   0.3800 O.2            1 <1>                0.0000
      5 C5           1.2721  -0.3016  -1.1075 C.3            1 <1>                0.0000
      6 N6           1.9331  -1.5596  -1.4797 N.3            1 <1>                0.0000
      7 C7          -0.0123  -0.6051  -0.3800 C.ar           1 <1>                0.0000
      8 C8          -0.0610  -1.6418   0.5335 C.ar           1 <1>                0.0000
      9 C9          -1.2390  -1.9202   1.2007 C.ar           1 <1>                0.0000
     10 C10         -2.3685  -1.1617   0.9549 C.ar           1 <1>                0.0000
     11 C11         -2.3196  -0.1249   0.0424 C.ar           1 <1>                0.0000
     12 C12         -1.1401   0.1564  -0.6218 C.ar           1 <1>                0.0000
     13 C13         -3.5510   0.7015  -0.2259 C.3            1 <1>                0.0000
     14 F14         -4.6081   0.2322   0.5612 F              1 <1>                0.0000
     15 F15         -3.2925   2.0396   0.0902 F              1 <1>                0.0000
     16 F16         -3.8954   0.5998  -1.5780 F              1 <1>                0.0000
     17 H17          2.6395   3.5801   0.8434 H              1 <1>                0.0000
     18 H18          2.8361   2.1054   1.8206 H              1 <1>                0.0000
     19 H19          3.9235   2.4135   0.4455 H              1 <1>                0.0000
     20 H20          1.0529   0.2737  -2.0070 H              1 <1>                0.0000
     21 H21          0.8214  -2.2342   0.7255 H              1 <1>                0.0000
     22 H22         -1.2772  -2.7304   1.9138 H              1 <1>                0.0000
     23 H23         -3.2892  -1.3798   1.4758 H              1 <1>                0.0000
     24 H24         -1.1019   0.9666  -1.3349 H              1 <1>                0.0000
     25 H25          2.1468  -2.1114  -0.6624 H              1 <1>                0.0000
     26 H26          1.3707  -2.0840  -2.1331 H              1 <1>                0.0000
@<TRIPOS>BOND
    1    1    2 1     
    2    1   17 1     
    3    1   18 1     
    4    1   19 1     
    5    2    3 1     
    6    3    4 2     
    7    3    5 1     
    8    5    6 1     
    9    5    7 1     
   10    5   20 1     
   11    6   25 1     
   12    6   26 1     
   13    7    8 ar    
   14    7   12 ar    
   15    8    9 ar    
   16    8   21 1     
   17    9   10 ar    
   18    9   22 1     
   19   10   11 ar    
   20   10   23 1     
   21   11   12 ar    
   22   11   13 1     
   23   12   24 1     
   24   13   14 1     
   25   13   15 1     
   26   13   16 1     
@<TRIPOS>SUBSTRUCTURE
      1 ****           1
@<TRIPOS>SET
DONOR_HYDROGENS      STATIC     ATOMS    <user>   **** ""
2 25 26
ATOM$RED        STATIC     ATOMS    COLORGROUP SYSTEM
2 25 26
