#       Name:                EN300-367353_i002
#       Creating user name   aseyller
#       Creation time:       Fri Apr 21 12:42:45 2023


#       File generated by GOLD software.
#

@<TRIPOS>MOLECULE
EN300-367353_i002|amine_3|mol2|95|dock8
    26    26     1
SMALL
USER_CHARGES


@<TRIPOS>ATOM
      1 C1          25.5083  37.2608  39.7465 C.3            1 <1>                0.0000
      2 O2          26.7893  36.9992  40.3782 O.3            1 <1>                0.0000
      3 C3          27.7364  36.4246  39.6204 C.2            1 <1>                0.0000
      4 O4          27.4222  35.6787  38.7232 O.2            1 <1>                0.0000
      5 C5          29.1918  36.7097  39.8884 C.3            1 <1>                0.0000
      6 N6          29.8644  35.4721  40.3056 N.3            1 <1>                0.0000
      7 C7          29.8400  37.2354  38.6337 C.ar           1 <1>                0.0000
      8 C8          29.3329  38.3623  38.0136 C.ar           1 <1>                0.0000
      9 C9          29.9274  38.8444  36.8627 C.ar           1 <1>                0.0000
     10 C10         31.0295  38.2001  36.3319 C.ar           1 <1>                0.0000
     11 C11         31.5370  37.0742  36.9522 C.ar           1 <1>                0.0000
     12 C12         30.9449  36.5944  38.1059 C.ar           1 <1>                0.0000
     13 C13         32.7379  36.3715  36.3733 C.3            1 <1>                0.0000
     14 F14         33.7815  36.3875  37.3049 F              1 <1>                0.0000
     15 F15         32.4027  35.0472  36.0713 F              1 <1>                0.0000
     16 F16         33.1444  37.0274  35.2064 F              1 <1>                0.0000
     17 H17         24.8359  37.7257  40.4674 H              1 <1>                0.0000
     18 H18         25.6515  37.9307  38.8986 H              1 <1>                0.0000
     19 H19         25.0761  36.3224  39.3992 H              1 <1>                0.0000
     20 H20         29.2764  37.4539  40.6803 H              1 <1>                0.0000
     21 H21         28.4721  38.8656  38.4283 H              1 <1>                0.0000
     22 H22         29.5309  39.7243  36.3780 H              1 <1>                0.0000
     23 H23         31.4936  38.5765  35.4322 H              1 <1>                0.0000
     24 H24         31.3415  35.7145  38.5906 H              1 <1>                0.0000
     25 H25         30.2259  34.9705  39.5081 H              1 <1>                0.0000
     26 H26         30.5961  35.6656  40.9730 H              1 <1>                0.0000
@<TRIPOS>BOND
    1    1    2 1     
    2    1   17 1     
    3    1   18 1     
    4    1   19 1     
    5    2    3 1     
    6    3    4 2     
    7    3    5 1     
    8    5    6 1     
    9    5    7 1     
   10    5   20 1     
   11    6   25 1     
   12    6   26 1     
   13    7    8 ar    
   14    7   12 ar    
   15    8    9 ar    
   16    8   21 1     
   17    9   10 ar    
   18    9   22 1     
   19   10   11 ar    
   20   10   23 1     
   21   11   12 ar    
   22   11   13 1     
   23   12   24 1     
   24   13   14 1     
   25   13   15 1     
   26   13   16 1     
@<TRIPOS>SUBSTRUCTURE
      1 ****           1
@<TRIPOS>SET
DONOR_HYDROGENS      STATIC     ATOMS    <user>   **** ""
2 25 26
ATOM$RED        STATIC     ATOMS    COLORGROUP SYSTEM
2 25 26
@<TRIPOS>COMMENT
> <Gold.Version>
2022.2.0

> <Gold.Id.Protein>
1qkm|1qkm_protein|mol2

> <Gold.Protein.RotatedTorsions>
[  496  491  490  487 ] final  111.93 input  -89.99 | X-H torsion

> <Gold.Protein.ActiveResidues>
 MET295  LEU298  THR299  LEU301  ALA302  GLU305  TRP335  MET336  LEU339  MET340 
 GLY342  LEU343  ARG346  PHE356  ILE373  ILE376  PHE377  LEU380  LYS471  GLY472 
 MET473  HIS475  LEU476  LEU477  ASN478  MET479  VAL484  VAL487 

> <Gold.Protein.RotatedAtoms>
   37.0156   32.9406   41.7344 H   0  0  0  0  0  0  0  0  0  0  0  0  # atno 496  bound_to 491 

> <Gold.Score>
     Score     S(PLP)   S(hbond)     S(cho)   S(metal)  DE(clash)   DE(tors)     intcor
     45.93     -46.17       1.00       0.00       0.00       4.92       0.43       2.55

> <Gold.PLP.Fitness>
45.9298

> <Gold.PLP.PLP>
-46.1687

> <Gold.PLP.part.hbond>
-1.0000

> <Gold.PLP.part.metal>
0.0000

> <Gold.PLP.part.buried>
-3.2439

> <Gold.PLP.part.nonpolar>
-42.5489

> <Gold.PLP.part.repulsive>
0.0654

> <Gold.PLP.ligand.clash>
4.9246

> <Gold.PLP.ligand.torsion>
0.4327

> <Gold.PLP.Chemscore.Hbond>
1.0000

> <Gold.PLP.Chemscore.CHOScore>
0.0000

> <Gold.PLP.Chemscore.Metal>
0.0000

> <Gold.Chemscore.Hbonds>
donor molecule, donor type, donor heavy atom, donor atom, acceptor molecule, acceptor atom, score
      L1  H     6    26       P1   470  1.00

> <Gold.PLP.Chemscore.Internal.Correction>
2.5512

