#       Name:                EN300-367353_i002
#       Creating user name   aseyller
#       Creation time:       Fri Apr 21 12:42:40 2023


#       File generated by GOLD software.
#

@<TRIPOS>MOLECULE
EN300-367353_i002|amine_3|mol2|95|dock2
    26    26     1
SMALL
USER_CHARGES


@<TRIPOS>ATOM
      1 C1          25.4833  37.2993  39.2418 C.3            1 <1>                0.0000
      2 O2          26.9339  37.2430  39.2760 O.3            1 <1>                0.0000
      3 C3          27.4927  36.5283  40.2653 C.2            1 <1>                0.0000
      4 O4          26.8293  35.7289  40.8823 O.2            1 <1>                0.0000
      5 C5          28.9477  36.7228  40.6063 C.3            1 <1>                0.0000
      6 N6          29.4021  35.6183  41.4615 N.3            1 <1>                0.0000
      7 C7          29.7622  36.7444  39.3385 C.ar           1 <1>                0.0000
      8 C8          30.7046  35.7599  39.1054 C.ar           1 <1>                0.0000
      9 C9          31.4516  35.7797  37.9428 C.ar           1 <1>                0.0000
     10 C10         31.2563  36.7839  37.0127 C.ar           1 <1>                0.0000
     11 C11         30.3138  37.7675  37.2453 C.ar           1 <1>                0.0000
     12 C12         29.5634  37.7452  38.4063 C.ar           1 <1>                0.0000
     13 C13         30.1013  38.8623  36.2316 C.3            1 <1>                0.0000
     14 F14         30.9576  39.9320  36.5142 F              1 <1>                0.0000
     15 F15         30.3754  38.3713  34.9506 F              1 <1>                0.0000
     16 F16         28.7737  39.2999  36.2891 F              1 <1>                0.0000
     17 H17         25.1633  37.9072  38.3956 H              1 <1>                0.0000
     18 H18         25.0830  36.2909  39.1368 H              1 <1>                0.0000
     19 H19         25.1149  37.7419  40.1671 H              1 <1>                0.0000
     20 H20         29.0738  37.6675  41.1352 H              1 <1>                0.0000
     21 H21         30.8570  34.9755  39.8320 H              1 <1>                0.0000
     22 H22         32.1882  35.0110  37.7610 H              1 <1>                0.0000
     23 H23         31.8407  36.7997  36.1044 H              1 <1>                0.0000
     24 H24         28.8269  38.5139  38.5880 H              1 <1>                0.0000
     25 H25         29.2498  34.7274  41.0130 H              1 <1>                0.0000
     26 H26         30.3717  35.7336  41.7164 H              1 <1>                0.0000
@<TRIPOS>BOND
    1    1    2 1     
    2    1   17 1     
    3    1   18 1     
    4    1   19 1     
    5    2    3 1     
    6    3    4 2     
    7    3    5 1     
    8    5    6 1     
    9    5    7 1     
   10    5   20 1     
   11    6   25 1     
   12    6   26 1     
   13    7    8 ar    
   14    7   12 ar    
   15    8    9 ar    
   16    8   21 1     
   17    9   10 ar    
   18    9   22 1     
   19   10   11 ar    
   20   10   23 1     
   21   11   12 ar    
   22   11   13 1     
   23   12   24 1     
   24   13   14 1     
   25   13   15 1     
   26   13   16 1     
@<TRIPOS>SUBSTRUCTURE
      1 ****           1
@<TRIPOS>SET
DONOR_HYDROGENS      STATIC     ATOMS    <user>   **** ""
2 25 26
ATOM$RED        STATIC     ATOMS    COLORGROUP SYSTEM
2 25 26
@<TRIPOS>COMMENT
> <Gold.Version>
2022.2.0

> <Gold.Id.Protein>
1qkm|1qkm_protein|mol2

> <Gold.Protein.RotatedTorsions>
[  496  491  490  487 ] final   88.94 input  -89.99 | X-H torsion

> <Gold.Protein.ActiveResidues>
 MET295  LEU298  THR299  LEU301  ALA302  GLU305  TRP335  MET336  LEU339  MET340 
 GLY342  LEU343  ARG346  PHE356  ILE373  ILE376  PHE377  LEU380  LYS471  GLY472 
 MET473  HIS475  LEU476  LEU477  ASN478  MET479  VAL484  VAL487 

> <Gold.Protein.RotatedAtoms>
   36.8105   33.0290   42.0367 H   0  0  0  0  0  0  0  0  0  0  0  0  # atno 496  bound_to 491 

> <Gold.Score>
     Score     S(PLP)   S(hbond)     S(cho)   S(metal)  DE(clash)   DE(tors)     intcor
     49.96     -50.13       1.00       0.00       0.00       2.31       1.72       2.58

> <Gold.PLP.Fitness>
49.9554

> <Gold.PLP.PLP>
-50.1307

> <Gold.PLP.part.hbond>
-1.1941

> <Gold.PLP.part.metal>
0.0000

> <Gold.PLP.part.buried>
-3.1262

> <Gold.PLP.part.nonpolar>
-47.0366

> <Gold.PLP.part.repulsive>
0.1493

> <Gold.PLP.ligand.clash>
2.3102

> <Gold.PLP.ligand.torsion>
1.7222

> <Gold.PLP.Chemscore.Hbond>
1.0000

> <Gold.PLP.Chemscore.CHOScore>
0.0000

> <Gold.PLP.Chemscore.Metal>
0.0000

> <Gold.Chemscore.Hbonds>
donor molecule, donor type, donor heavy atom, donor atom, acceptor molecule, acceptor atom, score
      L1  H     6    26       P1   470  1.00

> <Gold.PLP.Chemscore.Internal.Correction>
2.5792

