#       Name:                EN300-367353_i002
#       Creating user name   aseyller
#       Creation time:       Fri Apr 21 12:42:42 2023


#       File generated by GOLD software.
#

@<TRIPOS>MOLECULE
EN300-367353_i002|amine_3|mol2|95|dock4
    26    26     1
SMALL
USER_CHARGES


@<TRIPOS>ATOM
      1 C1          27.0984  38.4758  37.5994 C.3            1 <1>                0.0000
      2 O2          28.3677  37.8774  37.9725 O.3            1 <1>                0.0000
      3 C3          28.3515  36.9954  38.9842 C.2            1 <1>                0.0000
      4 O4          27.3074  36.5012  39.3383 O.2            1 <1>                0.0000
      5 C5          29.6358  36.6215  39.6785 C.3            1 <1>                0.0000
      6 N6          29.3694  35.5680  40.6669 N.3            1 <1>                0.0000
      7 C7          30.6280  36.1177  38.6622 C.ar           1 <1>                0.0000
      8 C8          31.1751  34.8551  38.7972 C.ar           1 <1>                0.0000
      9 C9          32.0851  34.3930  37.8651 C.ar           1 <1>                0.0000
     10 C10         32.4479  35.1931  36.7976 C.ar           1 <1>                0.0000
     11 C11         31.9004  36.4548  36.6622 C.ar           1 <1>                0.0000
     12 C12         30.9868  36.9154  37.5921 C.ar           1 <1>                0.0000
     13 C13         32.2963  37.3272  35.4988 C.3            1 <1>                0.0000
     14 F14         31.1871  37.5328  34.6714 F              1 <1>                0.0000
     15 F15         32.7573  38.5591  35.9754 F              1 <1>                0.0000
     16 F16         33.3120  36.6995  34.7697 F              1 <1>                0.0000
     17 H17         27.2523  39.1675  36.7713 H              1 <1>                0.0000
     18 H18         26.4034  37.6932  37.2947 H              1 <1>                0.0000
     19 H19         26.6866  39.0156  38.4520 H              1 <1>                0.0000
     20 H20         30.0448  37.4974  40.1822 H              1 <1>                0.0000
     21 H21         30.8915  34.2301  39.6311 H              1 <1>                0.0000
     22 H22         32.5129  33.4070  37.9710 H              1 <1>                0.0000
     23 H23         33.1595  34.8322  36.0697 H              1 <1>                0.0000
     24 H24         30.5590  37.9014  37.4863 H              1 <1>                0.0000
     25 H25         30.1757  35.4092  41.2524 H              1 <1>                0.0000
     26 H26         28.5572  35.7906  41.2227 H              1 <1>                0.0000
@<TRIPOS>BOND
    1    1    2 1     
    2    1   17 1     
    3    1   18 1     
    4    1   19 1     
    5    2    3 1     
    6    3    4 2     
    7    3    5 1     
    8    5    6 1     
    9    5    7 1     
   10    5   20 1     
   11    6   25 1     
   12    6   26 1     
   13    7    8 ar    
   14    7   12 ar    
   15    8    9 ar    
   16    8   21 1     
   17    9   10 ar    
   18    9   22 1     
   19   10   11 ar    
   20   10   23 1     
   21   11   12 ar    
   22   11   13 1     
   23   12   24 1     
   24   13   14 1     
   25   13   15 1     
   26   13   16 1     
@<TRIPOS>SUBSTRUCTURE
      1 ****           1
@<TRIPOS>SET
DONOR_HYDROGENS      STATIC     ATOMS    <user>   **** ""
2 25 26
ATOM$RED        STATIC     ATOMS    COLORGROUP SYSTEM
2 25 26
@<TRIPOS>COMMENT
> <Gold.Version>
2022.2.0

> <Gold.Id.Protein>
1qkm|1qkm_protein|mol2

> <Gold.Protein.RotatedTorsions>
[  496  491  490  487 ] final -151.74 input  -89.99 | X-H torsion

> <Gold.Protein.ActiveResidues>
 MET295  LEU298  THR299  LEU301  ALA302  GLU305  TRP335  MET336  LEU339  MET340 
 GLY342  LEU343  ARG346  PHE356  ILE373  ILE376  PHE377  LEU380  LYS471  GLY472 
 MET473  HIS475  LEU476  LEU477  ASN478  MET479  VAL484  VAL487 

> <Gold.Protein.RotatedAtoms>
   37.2399   33.8926   40.7253 H   0  0  0  0  0  0  0  0  0  0  0  0  # atno 496  bound_to 491 

> <Gold.Score>
     Score     S(PLP)   S(hbond)     S(cho)   S(metal)  DE(clash)   DE(tors)     intcor
     50.02     -50.03       1.00       0.00       0.00       4.84       0.37       2.58

> <Gold.PLP.Fitness>
50.0191

> <Gold.PLP.PLP>
-50.0284

> <Gold.PLP.part.hbond>
-1.0000

> <Gold.PLP.part.metal>
0.0000

> <Gold.PLP.part.buried>
-3.6169

> <Gold.PLP.part.nonpolar>
-44.8570

> <Gold.PLP.part.repulsive>
0.0063

> <Gold.PLP.ligand.clash>
4.8425

> <Gold.PLP.ligand.torsion>
0.3730

> <Gold.PLP.Chemscore.Hbond>
1.0000

> <Gold.PLP.Chemscore.CHOScore>
0.0000

> <Gold.PLP.Chemscore.Metal>
0.0000

> <Gold.Chemscore.Hbonds>
donor molecule, donor type, donor heavy atom, donor atom, acceptor molecule, acceptor atom, score
      L1  H     6    25       P1   470  1.00

> <Gold.PLP.Chemscore.Internal.Correction>
2.5792

