#       Name:                EN300-367353_i002
#       Creating user name   aseyller
#       Creation time:       Fri Apr 21 12:42:44 2023


#       File generated by GOLD software.
#

@<TRIPOS>MOLECULE
EN300-367353_i002|amine_3|mol2|95|dock6
    26    26     1
SMALL
USER_CHARGES


@<TRIPOS>ATOM
      1 C1          25.8443  37.1918  38.7562 C.3            1 <1>                0.0000
      2 O2          27.2868  37.0576  38.8543 O.3            1 <1>                0.0000
      3 C3          27.7718  36.4948  39.9722 C.2            1 <1>                0.0000
      4 O4          27.0559  35.8091  40.6630 O.2            1 <1>                0.0000
      5 C5          29.2093  36.7181  40.3657 C.3            1 <1>                0.0000
      6 N6          29.4848  36.0220  41.6296 N.3            1 <1>                0.0000
      7 C7          30.1146  36.1797  39.2880 C.ar           1 <1>                0.0000
      8 C8          30.6295  34.9008  39.3927 C.ar           1 <1>                0.0000
      9 C9          31.4598  34.4070  38.4043 C.ar           1 <1>                0.0000
     10 C10         31.7752  35.1918  37.3106 C.ar           1 <1>                0.0000
     11 C11         31.2598  36.4699  37.2054 C.ar           1 <1>                0.0000
     12 C12         30.4257  36.9623  38.1920 C.ar           1 <1>                0.0000
     13 C13         31.6041  37.3255  36.0135 C.3            1 <1>                0.0000
     14 F14         32.2109  38.5086  36.4485 F              1 <1>                0.0000
     15 F15         32.4847  36.6293  35.1786 F              1 <1>                0.0000
     16 F16         30.4363  37.6327  35.3071 F              1 <1>                0.0000
     17 H17         25.5868  37.6605  37.8065 H              1 <1>                0.0000
     18 H18         25.3831  36.2056  38.8115 H              1 <1>                0.0000
     19 H19         25.4802  37.8097  39.5769 H              1 <1>                0.0000
     20 H20         29.3898  37.7856  40.4920 H              1 <1>                0.0000
     21 H21         30.3830  34.2878  40.2471 H              1 <1>                0.0000
     22 H22         31.8625  33.4083  38.4864 H              1 <1>                0.0000
     23 H23         32.4247  34.8061  36.5386 H              1 <1>                0.0000
     24 H24         30.0230  37.9610  38.1098 H              1 <1>                0.0000
     25 H25         28.7415  35.3789  41.8578 H              1 <1>                0.0000
     26 H26         30.3750  35.5480  41.5948 H              1 <1>                0.0000
@<TRIPOS>BOND
    1    1    2 1     
    2    1   17 1     
    3    1   18 1     
    4    1   19 1     
    5    2    3 1     
    6    3    4 2     
    7    3    5 1     
    8    5    6 1     
    9    5    7 1     
   10    5   20 1     
   11    6   25 1     
   12    6   26 1     
   13    7    8 ar    
   14    7   12 ar    
   15    8    9 ar    
   16    8   21 1     
   17    9   10 ar    
   18    9   22 1     
   19   10   11 ar    
   20   10   23 1     
   21   11   12 ar    
   22   11   13 1     
   23   12   24 1     
   24   13   14 1     
   25   13   15 1     
   26   13   16 1     
@<TRIPOS>SUBSTRUCTURE
      1 ****           1
@<TRIPOS>SET
DONOR_HYDROGENS      STATIC     ATOMS    <user>   **** ""
2 25 26
ATOM$RED        STATIC     ATOMS    COLORGROUP SYSTEM
2 25 26
@<TRIPOS>COMMENT
> <Gold.Version>
2022.2.0

> <Gold.Id.Protein>
1qkm|1qkm_protein|mol2

> <Gold.Protein.RotatedTorsions>
[  496  491  490  487 ] final -174.96 input  -89.99 | X-H torsion

> <Gold.Protein.ActiveResidues>
 MET295  LEU298  THR299  LEU301  ALA302  GLU305  TRP335  MET336  LEU339  MET340 
 GLY342  LEU343  ARG346  PHE356  ILE373  ILE376  PHE377  LEU380  LYS471  GLY472 
 MET473  HIS475  LEU476  LEU477  ASN478  MET479  VAL484  VAL487 

> <Gold.Protein.RotatedAtoms>
   37.3130   33.5348   40.8285 H   0  0  0  0  0  0  0  0  0  0  0  0  # atno 496  bound_to 491 

> <Gold.Score>
     Score     S(PLP)   S(hbond)     S(cho)   S(metal)  DE(clash)   DE(tors)     intcor
     49.24     -48.63       1.00       0.00       0.00       2.96       0.99       2.55

> <Gold.PLP.Fitness>
49.2448

> <Gold.PLP.PLP>
-48.6323

> <Gold.PLP.part.hbond>
-1.0000

> <Gold.PLP.part.metal>
0.0000

> <Gold.PLP.part.buried>
-3.0939

> <Gold.PLP.part.nonpolar>
-45.4094

> <Gold.PLP.part.repulsive>
0.0980

> <Gold.PLP.ligand.clash>
2.9573

> <Gold.PLP.ligand.torsion>
0.9907

> <Gold.PLP.Chemscore.Hbond>
1.0000

> <Gold.PLP.Chemscore.CHOScore>
0.0000

> <Gold.PLP.Chemscore.Metal>
0.0000

> <Gold.Chemscore.Hbonds>
donor molecule, donor type, donor heavy atom, donor atom, acceptor molecule, acceptor atom, score
      L1  H     6    26       P1   470  1.00

> <Gold.PLP.Chemscore.Internal.Correction>
2.5512

