#       Name:                EN300-367353_i002
#       Creating user name   aseyller
#       Creation time:       Fri Apr 21 12:42:45 2023


#       File generated by GOLD software.
#

@<TRIPOS>MOLECULE
EN300-367353_i002|amine_3|mol2|95|dock7
    26    26     1
SMALL
USER_CHARGES


@<TRIPOS>ATOM
      1 C1          31.7177  33.5612  38.5933 C.3            1 <1>                0.0000
      2 O2          31.5597  35.0037  38.6440 O.3            1 <1>                0.0000
      3 C3          32.0177  35.7042  37.5946 C.2            1 <1>                0.0000
      4 O4          32.5087  35.1291  36.6523 O.2            1 <1>                0.0000
      5 C5          31.9195  37.2080  37.5918 C.3            1 <1>                0.0000
      6 N6          32.5758  37.7393  36.3897 N.3            1 <1>                0.0000
      7 C7          30.4690  37.6167  37.5943 C.ar           1 <1>                0.0000
      8 C8          30.0668  38.7429  36.9003 C.ar           1 <1>                0.0000
      9 C9          28.7365  39.1177  36.9027 C.ar           1 <1>                0.0000
     10 C10         27.8078  38.3662  37.5987 C.ar           1 <1>                0.0000
     11 C11         28.2097  37.2401  38.2917 C.ar           1 <1>                0.0000
     12 C12         29.5397  36.8626  38.2858 C.ar           1 <1>                0.0000
     13 C13         27.1974  36.4213  39.0509 C.3            1 <1>                0.0000
     14 F14         26.6866  35.4211  38.2166 F              1 <1>                0.0000
     15 F15         27.8120  35.8332  40.1616 F              1 <1>                0.0000
     16 F16         26.1543  37.2494  39.4789 F              1 <1>                0.0000
     17 H17         31.3067  33.1186  39.5005 H              1 <1>                0.0000
     18 H18         31.1885  33.1681  37.7252 H              1 <1>                0.0000
     19 H19         32.7765  33.3142  38.5159 H              1 <1>                0.0000
     20 H20         32.4106  37.6059  38.4798 H              1 <1>                0.0000
     21 H21         30.7923  39.3298  36.3566 H              1 <1>                0.0000
     22 H22         28.4224  39.9977  36.3611 H              1 <1>                0.0000
     23 H23         26.7684  38.6596  37.6011 H              1 <1>                0.0000
     24 H24         29.8537  35.9826  38.8274 H              1 <1>                0.0000
     25 H25         33.1729  38.5198  36.6188 H              1 <1>                0.0000
     26 H26         33.0927  37.0170  35.9108 H              1 <1>                0.0000
@<TRIPOS>BOND
    1    1    2 1     
    2    1   17 1     
    3    1   18 1     
    4    1   19 1     
    5    2    3 1     
    6    3    4 2     
    7    3    5 1     
    8    5    6 1     
    9    5    7 1     
   10    5   20 1     
   11    6   25 1     
   12    6   26 1     
   13    7    8 ar    
   14    7   12 ar    
   15    8    9 ar    
   16    8   21 1     
   17    9   10 ar    
   18    9   22 1     
   19   10   11 ar    
   20   10   23 1     
   21   11   12 ar    
   22   11   13 1     
   23   12   24 1     
   24   13   14 1     
   25   13   15 1     
   26   13   16 1     
@<TRIPOS>SUBSTRUCTURE
      1 ****           1
@<TRIPOS>SET
DONOR_HYDROGENS      STATIC     ATOMS    <user>   **** ""
2 25 26
ATOM$RED        STATIC     ATOMS    COLORGROUP SYSTEM
2 25 26
@<TRIPOS>COMMENT
> <Gold.Version>
2022.2.0

> <Gold.Id.Protein>
1qkm|1qkm_protein|mol2

> <Gold.Protein.RotatedTorsions>
[  496  491  490  487 ] final  -40.88 input  -89.99 | X-H torsion

> <Gold.Protein.ActiveResidues>
 MET295  LEU298  THR299  LEU301  ALA302  GLU305  TRP335  MET336  LEU339  MET340 
 GLY342  LEU343  ARG346  PHE356  ILE373  ILE376  PHE377  LEU380  LYS471  GLY472 
 MET473  HIS475  LEU476  LEU477  ASN478  MET479  VAL484  VAL487 

> <Gold.Protein.RotatedAtoms>
   36.3682   34.6558   41.7598 H   0  0  0  0  0  0  0  0  0  0  0  0  # atno 496  bound_to 491 

> <Gold.Score>
     Score     S(PLP)   S(hbond)     S(cho)   S(metal)  DE(clash)   DE(tors)     intcor
     48.33     -49.80       0.00       0.00       0.00       0.30       1.86       2.55

> <Gold.PLP.Fitness>
48.3284

> <Gold.PLP.PLP>
-49.7959

> <Gold.PLP.part.hbond>
0.0000

> <Gold.PLP.part.metal>
0.0000

> <Gold.PLP.part.buried>
-4.1935

> <Gold.PLP.part.nonpolar>
-45.7618

> <Gold.PLP.part.repulsive>
0.0968

> <Gold.PLP.ligand.clash>
0.3029

> <Gold.PLP.ligand.torsion>
1.8579

> <Gold.PLP.Chemscore.Hbond>
0.0000

> <Gold.PLP.Chemscore.CHOScore>
0.0000

> <Gold.PLP.Chemscore.Metal>
0.0000

> <Gold.PLP.Chemscore.Internal.Correction>
2.5512

