#       Name:                EN300-367353_i002
#       Creating user name   aseyller
#       Creation time:       Fri Apr 21 12:42:43 2023


#       File generated by GOLD software.
#

@<TRIPOS>MOLECULE
EN300-367353_i002|amine_3|mol2|95|dock5
    26    26     1
SMALL
USER_CHARGES


@<TRIPOS>ATOM
      1 C1          25.0562  36.9942  41.2807 C.3            1 <1>                0.0000
      2 O2          26.4665  37.0941  41.6116 O.3            1 <1>                0.0000
      3 C3          27.3247  36.4178  40.8319 C.2            1 <1>                0.0000
      4 O4          26.9096  35.6066  40.0385 O.2            1 <1>                0.0000
      5 C5          28.8060  36.6704  40.9461 C.3            1 <1>                0.0000
      6 N6          29.4582  35.4973  41.5432 N.3            1 <1>                0.0000
      7 C7          29.3800  36.9210  39.5754 C.ar           1 <1>                0.0000
      8 C8          28.8271  37.8923  38.7614 C.ar           1 <1>                0.0000
      9 C9          29.3535  38.1220  37.5042 C.ar           1 <1>                0.0000
     10 C10         30.4332  37.3809  37.0609 C.ar           1 <1>                0.0000
     11 C11         30.9863  36.4106  37.8748 C.ar           1 <1>                0.0000
     12 C12         30.4625  36.1837  39.1341 C.ar           1 <1>                0.0000
     13 C13         32.1628  35.6023  37.3913 C.3            1 <1>                0.0000
     14 F14         32.1149  35.4974  35.9970 F              1 <1>                0.0000
     15 F15         33.3511  36.2357  37.7707 F              1 <1>                0.0000
     16 F16         32.1144  34.3238  37.9571 F              1 <1>                0.0000
     17 H17         24.4745  37.5862  41.9871 H              1 <1>                0.0000
     18 H18         24.8925  37.3697  40.2705 H              1 <1>                0.0000
     19 H19         24.7430  35.9517  41.3360 H              1 <1>                0.0000
     20 H20         28.9783  37.5424  41.5770 H              1 <1>                0.0000
     21 H21         27.9838  38.4712  39.1079 H              1 <1>                0.0000
     22 H22         28.9213  38.8803  36.8682 H              1 <1>                0.0000
     23 H23         30.8440  37.5600  36.0782 H              1 <1>                0.0000
     24 H24         30.8948  35.4254  39.7702 H              1 <1>                0.0000
     25 H25         30.4615  35.6047  41.5480 H              1 <1>                0.0000
     26 H26         29.1086  35.3238  42.4737 H              1 <1>                0.0000
@<TRIPOS>BOND
    1    1    2 1     
    2    1   17 1     
    3    1   18 1     
    4    1   19 1     
    5    2    3 1     
    6    3    4 2     
    7    3    5 1     
    8    5    6 1     
    9    5    7 1     
   10    5   20 1     
   11    6   25 1     
   12    6   26 1     
   13    7    8 ar    
   14    7   12 ar    
   15    8    9 ar    
   16    8   21 1     
   17    9   10 ar    
   18    9   22 1     
   19   10   11 ar    
   20   10   23 1     
   21   11   12 ar    
   22   11   13 1     
   23   12   24 1     
   24   13   14 1     
   25   13   15 1     
   26   13   16 1     
@<TRIPOS>SUBSTRUCTURE
      1 ****           1
@<TRIPOS>SET
DONOR_HYDROGENS      STATIC     ATOMS    <user>   **** ""
2 25 26
ATOM$RED        STATIC     ATOMS    COLORGROUP SYSTEM
2 25 26
@<TRIPOS>COMMENT
> <Gold.Version>
2022.2.0

> <Gold.Id.Protein>
1qkm|1qkm_protein|mol2

> <Gold.Protein.RotatedTorsions>
[  496  491  490  487 ] final  119.50 input  -89.99 | X-H torsion

> <Gold.Protein.ActiveResidues>
 MET295  LEU298  THR299  LEU301  ALA302  GLU305  TRP335  MET336  LEU339  MET340 
 GLY342  LEU343  ARG346  PHE356  ILE373  ILE376  PHE377  LEU380  LYS471  GLY472 
 MET473  HIS475  LEU476  LEU477  ASN478  MET479  VAL484  VAL487 

> <Gold.Protein.RotatedAtoms>
   37.0767   32.9426   41.6260 H   0  0  0  0  0  0  0  0  0  0  0  0  # atno 496  bound_to 491 

> <Gold.Score>
     Score     S(PLP)   S(hbond)     S(cho)   S(metal)  DE(clash)   DE(tors)     intcor
     48.28     -48.04       0.96       0.00       0.00       2.21       1.50       2.58

> <Gold.PLP.Fitness>
48.2847

> <Gold.PLP.PLP>
-48.0365

> <Gold.PLP.part.hbond>
-1.4247

> <Gold.PLP.part.metal>
0.0000

> <Gold.PLP.part.buried>
-0.2371

> <Gold.PLP.part.nonpolar>
-47.5172

> <Gold.PLP.part.repulsive>
0.2409

> <Gold.PLP.ligand.clash>
2.2078

> <Gold.PLP.ligand.torsion>
1.5016

> <Gold.PLP.Chemscore.Hbond>
0.9600

> <Gold.PLP.Chemscore.CHOScore>
0.0000

> <Gold.PLP.Chemscore.Metal>
0.0000

> <Gold.Chemscore.Hbonds>
donor molecule, donor type, donor heavy atom, donor atom, acceptor molecule, acceptor atom, score
      L1  H     6    25       P1   470  0.96

> <Gold.PLP.Chemscore.Internal.Correction>
2.5792

