#       Name:                EN300-367353_i002
#       Creating user name   aseyller
#       Creation time:       Fri Apr 21 12:42:48 2023


#       File generated by GOLD software.
#

@<TRIPOS>MOLECULE
EN300-367353_i002|amine_3|mol2|95|dock11
    26    26     1
SMALL
USER_CHARGES


@<TRIPOS>ATOM
      1 C1          25.6228  36.4278  41.0286 C.3            1 <1>                0.0000
      2 O2          27.0566  36.1992  41.0494 O.3            1 <1>                0.0000
      3 C3          27.7672  36.6920  40.0228 C.2            1 <1>                0.0000
      4 O4          27.2583  36.7997  38.9323 O.2            1 <1>                0.0000
      5 C5          29.1998  37.1111  40.2304 C.3            1 <1>                0.0000
      6 N6          29.6175  36.7675  41.5962 N.3            1 <1>                0.0000
      7 C7          30.0813  36.3945  39.2401 C.ar           1 <1>                0.0000
      8 C8          30.3733  35.0548  39.4176 C.ar           1 <1>                0.0000
      9 C9          31.1818  34.3975  38.5094 C.ar           1 <1>                0.0000
     10 C10         31.6982  35.0797  37.4234 C.ar           1 <1>                0.0000
     11 C11         31.4057  36.4187  37.2456 C.ar           1 <1>                0.0000
     12 C12         30.5933  37.0751  38.1516 C.ar           1 <1>                0.0000
     13 C13         31.9690  37.1624  36.0621 C.3            1 <1>                0.0000
     14 F14         31.0864  37.0566  34.9817 F              1 <1>                0.0000
     15 F15         32.1381  38.5105  36.3959 F              1 <1>                0.0000
     16 F16         33.2054  36.6105  35.7100 F              1 <1>                0.0000
     17 H17         25.1706  35.9792  41.9130 H              1 <1>                0.0000
     18 H18         25.4259  37.4999  41.0239 H              1 <1>                0.0000
     19 H19         25.1959  35.9761  40.1333 H              1 <1>                0.0000
     20 H20         29.2885  38.1875  40.0832 H              1 <1>                0.0000
     21 H21         29.9698  34.5219  40.2659 H              1 <1>                0.0000
     22 H22         31.4104  33.3512  38.6484 H              1 <1>                0.0000
     23 H23         32.3306  34.5662  36.7142 H              1 <1>                0.0000
     24 H24         30.3648  38.1214  38.0127 H              1 <1>                0.0000
     25 H25         28.8879  36.2686  42.0828 H              1 <1>                0.0000
     26 H26         30.4757  36.2367  41.5890 H              1 <1>                0.0000
@<TRIPOS>BOND
    1    1    2 1     
    2    1   17 1     
    3    1   18 1     
    4    1   19 1     
    5    2    3 1     
    6    3    4 2     
    7    3    5 1     
    8    5    6 1     
    9    5    7 1     
   10    5   20 1     
   11    6   25 1     
   12    6   26 1     
   13    7    8 ar    
   14    7   12 ar    
   15    8    9 ar    
   16    8   21 1     
   17    9   10 ar    
   18    9   22 1     
   19   10   11 ar    
   20   10   23 1     
   21   11   12 ar    
   22   11   13 1     
   23   12   24 1     
   24   13   14 1     
   25   13   15 1     
   26   13   16 1     
@<TRIPOS>SUBSTRUCTURE
      1 ****           1
@<TRIPOS>SET
DONOR_HYDROGENS      STATIC     ATOMS    <user>   **** ""
2 25 26
ATOM$RED        STATIC     ATOMS    COLORGROUP SYSTEM
2 25 26
@<TRIPOS>COMMENT
> <Gold.Version>
2022.2.0

> <Gold.Id.Protein>
1qkm|1qkm_protein|mol2

> <Gold.Protein.RotatedTorsions>
[  496  491  490  487 ] final  -15.35 input  -89.99 | X-H torsion

> <Gold.Protein.ActiveResidues>
 MET295  LEU298  THR299  LEU301  ALA302  GLU305  TRP335  MET336  LEU339  MET340 
 GLY342  LEU343  ARG346  PHE356  ILE373  ILE376  PHE377  LEU380  LYS471  GLY472 
 MET473  HIS475  LEU476  LEU477  ASN478  MET479  VAL484  VAL487 

> <Gold.Protein.RotatedAtoms>
   36.2703   34.4162   42.0865 H   0  0  0  0  0  0  0  0  0  0  0  0  # atno 496  bound_to 491 

> <Gold.Score>
     Score     S(PLP)   S(hbond)     S(cho)   S(metal)  DE(clash)   DE(tors)     intcor
     49.10     -47.69       1.00       0.00       0.00       0.30       1.92       2.55

> <Gold.PLP.Fitness>
49.0976

> <Gold.PLP.PLP>
-47.6864

> <Gold.PLP.part.hbond>
-1.0000

> <Gold.PLP.part.metal>
0.0000

> <Gold.PLP.part.buried>
-3.6642

> <Gold.PLP.part.nonpolar>
-43.5406

> <Gold.PLP.part.repulsive>
0.1047

> <Gold.PLP.ligand.clash>
0.2990

> <Gold.PLP.ligand.torsion>
1.9205

> <Gold.PLP.Chemscore.Hbond>
1.0000

> <Gold.PLP.Chemscore.CHOScore>
0.0000

> <Gold.PLP.Chemscore.Metal>
0.0000

> <Gold.Chemscore.Hbonds>
donor molecule, donor type, donor heavy atom, donor atom, acceptor molecule, acceptor atom, score
      L1  H     6    26       P1   470  1.00

> <Gold.PLP.Chemscore.Internal.Correction>
2.5512

