#       Name:                EN300-367353_i002
#       Creating user name   aseyller
#       Creation time:       Fri Apr 21 12:42:53 2023


#       File generated by GOLD software.
#

@<TRIPOS>MOLECULE
EN300-367353_i002|amine_3|mol2|95|dock16
    26    26     1
SMALL
USER_CHARGES


@<TRIPOS>ATOM
      1 C1          30.6012  40.2649  36.2588 C.3            1 <1>                0.0000
      2 O2          31.3835  39.0420  36.2875 O.3            1 <1>                0.0000
      3 C3          31.2191  38.1894  35.2640 C.2            1 <1>                0.0000
      4 O4          30.5236  38.4987  34.3257 O.2            1 <1>                0.0000
      5 C5          31.9022  36.8462  35.2851 C.3            1 <1>                0.0000
      6 N6          33.3557  37.0344  35.1864 N.3            1 <1>                0.0000
      7 C7          31.5739  36.1359  36.5730 C.ar           1 <1>                0.0000
      8 C8          32.3757  35.0997  37.0148 C.ar           1 <1>                0.0000
      9 C9          32.0746  34.4482  38.1960 C.ar           1 <1>                0.0000
     10 C10         30.9719  34.8330  38.9359 C.ar           1 <1>                0.0000
     11 C11         30.1709  35.8693  38.4948 C.ar           1 <1>                0.0000
     12 C12         30.4746  36.5239  37.3154 C.ar           1 <1>                0.0000
     13 C13         28.9686  36.2882  39.3011 C.3            1 <1>                0.0000
     14 F14         28.2752  37.2923  38.6169 F              1 <1>                0.0000
     15 F15         28.1274  35.1866  39.4906 F              1 <1>                0.0000
     16 F16         29.3873  36.7747  40.5442 F              1 <1>                0.0000
     17 H17         30.8288  40.8626  37.1414 H              1 <1>                0.0000
     18 H18         30.8478  40.8331  35.3618 H              1 <1>                0.0000
     19 H19         29.5398  40.0172  36.2516 H              1 <1>                0.0000
     20 H20         31.5550  36.2487  34.4420 H              1 <1>                0.0000
     21 H21         33.2371  34.7993  36.4367 H              1 <1>                0.0000
     22 H22         32.7005  33.6385  38.5408 H              1 <1>                0.0000
     23 H23         30.7363  34.3234  39.8586 H              1 <1>                0.0000
     24 H24         29.8486  37.3336  36.9707 H              1 <1>                0.0000
     25 H25         33.7534  36.4208  34.4910 H              1 <1>                0.0000
     26 H26         33.5831  37.9979  34.9909 H              1 <1>                0.0000
@<TRIPOS>BOND
    1    1    2 1     
    2    1   17 1     
    3    1   18 1     
    4    1   19 1     
    5    2    3 1     
    6    3    4 2     
    7    3    5 1     
    8    5    6 1     
    9    5    7 1     
   10    5   20 1     
   11    6   25 1     
   12    6   26 1     
   13    7    8 ar    
   14    7   12 ar    
   15    8    9 ar    
   16    8   21 1     
   17    9   10 ar    
   18    9   22 1     
   19   10   11 ar    
   20   10   23 1     
   21   11   12 ar    
   22   11   13 1     
   23   12   24 1     
   24   13   14 1     
   25   13   15 1     
   26   13   16 1     
@<TRIPOS>SUBSTRUCTURE
      1 ****           1
@<TRIPOS>SET
DONOR_HYDROGENS      STATIC     ATOMS    <user>   **** ""
2 25 26
ATOM$RED        STATIC     ATOMS    COLORGROUP SYSTEM
2 25 26
@<TRIPOS>COMMENT
> <Gold.Version>
2022.2.0

> <Gold.Id.Protein>
1qkm|1qkm_protein|mol2

> <Gold.Protein.RotatedTorsions>
[  496  491  490  487 ] final   38.36 input  -89.99 | X-H torsion

> <Gold.Protein.ActiveResidues>
 MET295  LEU298  THR299  LEU301  ALA302  GLU305  TRP335  MET336  LEU339  MET340 
 GLY342  LEU343  ARG346  PHE356  ILE373  ILE376  PHE377  LEU380  LYS471  GLY472 
 MET473  HIS475  LEU476  LEU477  ASN478  MET479  VAL484  VAL487 

> <Gold.Protein.RotatedAtoms>
   36.3934   33.6262   42.3815 H   0  0  0  0  0  0  0  0  0  0  0  0  # atno 496  bound_to 491 

> <Gold.Score>
     Score     S(PLP)   S(hbond)     S(cho)   S(metal)  DE(clash)   DE(tors)     intcor
     45.62     -47.58       0.00       0.00       0.00       3.08       0.71       2.55

> <Gold.PLP.Fitness>
45.6239

> <Gold.PLP.PLP>
-47.5828

> <Gold.PLP.part.hbond>
0.0000

> <Gold.PLP.part.metal>
0.0000

> <Gold.PLP.part.buried>
-2.7702

> <Gold.PLP.part.nonpolar>
-44.9693

> <Gold.PLP.part.repulsive>
0.0358

> <Gold.PLP.ligand.clash>
3.0840

> <Gold.PLP.ligand.torsion>
0.7130

> <Gold.PLP.Chemscore.Hbond>
0.0000

> <Gold.PLP.Chemscore.CHOScore>
0.0000

> <Gold.PLP.Chemscore.Metal>
0.0000

> <Gold.PLP.Chemscore.Internal.Correction>
2.5512

