#       Name:                EN300-367353_i002
#       Creating user name   aseyller
#       Creation time:       Fri Apr 21 12:42:47 2023


#       File generated by GOLD software.
#

@<TRIPOS>MOLECULE
EN300-367353_i002|amine_3|mol2|95|dock10
    26    26     1
SMALL
USER_CHARGES


@<TRIPOS>ATOM
      1 C1          31.5945  33.7923  38.4486 C.3            1 <1>                0.0000
      2 O2          30.9128  35.0584  38.2475 O.3            1 <1>                0.0000
      3 C3          31.6772  36.1223  37.9550 C.2            1 <1>                0.0000
      4 O4          32.8784  36.0057  37.8978 O.2            1 <1>                0.0000
      5 C5          31.0371  37.4622  37.6979 C.3            1 <1>                0.0000
      6 N6          31.1347  37.7853  36.2682 N.3            1 <1>                0.0000
      7 C7          29.5867  37.4122  38.1037 C.ar           1 <1>                0.0000
      8 C8          28.6078  37.8367  37.2244 C.ar           1 <1>                0.0000
      9 C9          27.2775  37.7908  37.5966 C.ar           1 <1>                0.0000
     10 C10         26.9257  37.3200  38.8481 C.ar           1 <1>                0.0000
     11 C11         27.9041  36.8949  39.7267 C.ar           1 <1>                0.0000
     12 C12         29.2345  36.9367  39.3528 C.ar           1 <1>                0.0000
     13 C13         27.5206  36.3822  41.0910 C.3            1 <1>                0.0000
     14 F14         28.5433  36.6694  42.0015 F              1 <1>                0.0000
     15 F15         26.3379  37.0032  41.5070 F              1 <1>                0.0000
     16 F16         27.3246  34.9984  41.0311 F              1 <1>                0.0000
     17 H17         30.8625  33.0179  38.6777 H              1 <1>                0.0000
     18 H18         32.1363  33.5233  37.5418 H              1 <1>                0.0000
     19 H19         32.2965  33.8852  39.2772 H              1 <1>                0.0000
     20 H20         31.5508  38.2278  38.2793 H              1 <1>                0.0000
     21 H21         28.8827  38.2044  36.2469 H              1 <1>                0.0000
     22 H22         26.5129  38.1230  36.9100 H              1 <1>                0.0000
     23 H23         25.8861  37.2849  39.1391 H              1 <1>                0.0000
     24 H24         29.9991  36.6045  40.0394 H              1 <1>                0.0000
     25 H25         30.2189  37.8871  35.8571 H              1 <1>                0.0000
     26 H26         31.6909  38.6144  36.1220 H              1 <1>                0.0000
@<TRIPOS>BOND
    1    1    2 1     
    2    1   17 1     
    3    1   18 1     
    4    1   19 1     
    5    2    3 1     
    6    3    4 2     
    7    3    5 1     
    8    5    6 1     
    9    5    7 1     
   10    5   20 1     
   11    6   25 1     
   12    6   26 1     
   13    7    8 ar    
   14    7   12 ar    
   15    8    9 ar    
   16    8   21 1     
   17    9   10 ar    
   18    9   22 1     
   19   10   11 ar    
   20   10   23 1     
   21   11   12 ar    
   22   11   13 1     
   23   12   24 1     
   24   13   14 1     
   25   13   15 1     
   26   13   16 1     
@<TRIPOS>SUBSTRUCTURE
      1 ****           1
@<TRIPOS>SET
DONOR_HYDROGENS      STATIC     ATOMS    <user>   **** ""
2 25 26
ATOM$RED        STATIC     ATOMS    COLORGROUP SYSTEM
2 25 26
@<TRIPOS>COMMENT
> <Gold.Version>
2022.2.0

> <Gold.Id.Protein>
1qkm|1qkm_protein|mol2

> <Gold.Protein.RotatedTorsions>
[  496  491  490  487 ] final   35.15 input  -89.99 | X-H torsion

> <Gold.Protein.ActiveResidues>
 MET295  LEU298  THR299  LEU301  ALA302  GLU305  TRP335  MET336  LEU339  MET340 
 GLY342  LEU343  ARG346  PHE356  ILE373  ILE376  PHE377  LEU380  LYS471  GLY472 
 MET473  HIS475  LEU476  LEU477  ASN478  MET479  VAL484  VAL487 

> <Gold.Protein.RotatedAtoms>
   36.3743   33.6755   42.3833 H   0  0  0  0  0  0  0  0  0  0  0  0  # atno 496  bound_to 491 

> <Gold.Score>
     Score     S(PLP)   S(hbond)     S(cho)   S(metal)  DE(clash)   DE(tors)     intcor
     47.98     -50.54       0.00       0.00       0.00       2.03       1.54       2.55

> <Gold.PLP.Fitness>
47.9811

> <Gold.PLP.PLP>
-50.5374

> <Gold.PLP.part.hbond>
0.0000

> <Gold.PLP.part.metal>
0.0000

> <Gold.PLP.part.buried>
-3.0496

> <Gold.PLP.part.nonpolar>
-47.7488

> <Gold.PLP.part.repulsive>
0.0884

> <Gold.PLP.ligand.clash>
2.0295

> <Gold.PLP.ligand.torsion>
1.5390

> <Gold.PLP.Chemscore.Hbond>
0.0000

> <Gold.PLP.Chemscore.CHOScore>
0.0000

> <Gold.PLP.Chemscore.Metal>
0.0000

> <Gold.PLP.Chemscore.Internal.Correction>
2.5512

