#       Name:                EN300-367353_i002
#       Creating user name   aseyller
#       Creation time:       Fri Apr 21 12:42:57 2023


#       File generated by GOLD software.
#

@<TRIPOS>MOLECULE
EN300-367353_i002|amine_3|mol2|95|dock20
    26    26     1
SMALL
USER_CHARGES


@<TRIPOS>ATOM
      1 C1          25.5807  37.3004  39.0962 C.3            1 <1>                0.0000
      2 O2          26.9221  36.7636  39.2407 O.3            1 <1>                0.0000
      3 C3          27.4345  36.7296  40.4809 C.2            1 <1>                0.0000
      4 O4          26.6986  36.6692  41.4372 O.2            1 <1>                0.0000
      5 C5          28.9278  36.7669  40.6804 C.3            1 <1>                0.0000
      6 N6          29.3836  35.4742  41.2088 N.3            1 <1>                0.0000
      7 C7          29.6043  37.0371  39.3612 C.ar           1 <1>                0.0000
      8 C8          29.2258  38.1282  38.6010 C.ar           1 <1>                0.0000
      9 C9          29.8462  38.3760  37.3910 C.ar           1 <1>                0.0000
     10 C10         30.8456  37.5331  36.9411 C.ar           1 <1>                0.0000
     11 C11         31.2244  36.4430  37.7015 C.ar           1 <1>                0.0000
     12 C12         30.6069  36.1975  38.9138 C.ar           1 <1>                0.0000
     13 C13         32.3134  35.5239  37.2108 C.3            1 <1>                0.0000
     14 F14         32.3037  35.4946  35.8121 F              1 <1>                0.0000
     15 F15         33.5540  35.9900  37.6589 F              1 <1>                0.0000
     16 F16         32.0932  34.2341  37.7058 F              1 <1>                0.0000
     17 H17         25.2885  37.2703  38.0466 H              1 <1>                0.0000
     18 H18         24.8847  36.7023  39.6845 H              1 <1>                0.0000
     19 H19         25.5620  38.3314  39.4491 H              1 <1>                0.0000
     20 H20         29.1804  37.5576  41.3869 H              1 <1>                0.0000
     21 H21         28.4453  38.7866  38.9525 H              1 <1>                0.0000
     22 H22         29.5502  39.2279  36.7969 H              1 <1>                0.0000
     23 H23         31.3298  37.7264  35.9952 H              1 <1>                0.0000
     24 H24         30.9030  35.3456  39.5080 H              1 <1>                0.0000
     25 H25         30.3829  35.4728  41.3488 H              1 <1>                0.0000
     26 H26         28.8986  35.2412  42.0624 H              1 <1>                0.0000
@<TRIPOS>BOND
    1    1    2 1     
    2    1   17 1     
    3    1   18 1     
    4    1   19 1     
    5    2    3 1     
    6    3    4 2     
    7    3    5 1     
    8    5    6 1     
    9    5    7 1     
   10    5   20 1     
   11    6   25 1     
   12    6   26 1     
   13    7    8 ar    
   14    7   12 ar    
   15    8    9 ar    
   16    8   21 1     
   17    9   10 ar    
   18    9   22 1     
   19   10   11 ar    
   20   10   23 1     
   21   11   12 ar    
   22   11   13 1     
   23   12   24 1     
   24   13   14 1     
   25   13   15 1     
   26   13   16 1     
@<TRIPOS>SUBSTRUCTURE
      1 ****           1
@<TRIPOS>SET
DONOR_HYDROGENS      STATIC     ATOMS    <user>   **** ""
2 25 26
ATOM$RED        STATIC     ATOMS    COLORGROUP SYSTEM
2 25 26
@<TRIPOS>COMMENT
> <Gold.Version>
2022.2.0

> <Gold.Id.Protein>
1qkm|1qkm_protein|mol2

> <Gold.Protein.RotatedTorsions>
[  496  491  490  487 ] final   44.96 input  -89.99 | X-H torsion

> <Gold.Protein.ActiveResidues>
 MET295  LEU298  THR299  LEU301  ALA302  GLU305  TRP335  MET336  LEU339  MET340 
 GLY342  LEU343  ARG346  PHE356  ILE373  ILE376  PHE377  LEU380  LYS471  GLY472 
 MET473  HIS475  LEU476  LEU477  ASN478  MET479  VAL484  VAL487 

> <Gold.Protein.RotatedAtoms>
   36.4366   33.5274   42.3698 H   0  0  0  0  0  0  0  0  0  0  0  0  # atno 496  bound_to 491 

> <Gold.Score>
     Score     S(PLP)   S(hbond)     S(cho)   S(metal)  DE(clash)   DE(tors)     intcor
     49.88     -49.87       1.00       0.00       0.00       2.12       1.71       2.55

> <Gold.PLP.Fitness>
49.8823

> <Gold.PLP.PLP>
-49.8706

> <Gold.PLP.part.hbond>
-1.0000

> <Gold.PLP.part.metal>
0.0000

> <Gold.PLP.part.buried>
-4.6663

> <Gold.PLP.part.nonpolar>
-45.4791

> <Gold.PLP.part.repulsive>
0.1649

> <Gold.PLP.ligand.clash>
2.1236

> <Gold.PLP.ligand.torsion>
1.7080

> <Gold.PLP.Chemscore.Hbond>
1.0000

> <Gold.PLP.Chemscore.CHOScore>
0.0000

> <Gold.PLP.Chemscore.Metal>
0.0000

> <Gold.Chemscore.Hbonds>
donor molecule, donor type, donor heavy atom, donor atom, acceptor molecule, acceptor atom, score
      L1  H     6    25       P1   470  1.00

> <Gold.PLP.Chemscore.Internal.Correction>
2.5512

