#       Name:                EN300-367353_i002
#       Creating user name   aseyller
#       Creation time:       Fri Apr 21 12:42:39 2023


#       File generated by GOLD software.
#

@<TRIPOS>MOLECULE
EN300-367353_i002|amine_3|mol2|95|dock1
    26    26     1
SMALL
USER_CHARGES


@<TRIPOS>ATOM
      1 C1          25.6898  37.1550  39.6004 C.3            1 <1>                0.0000
      2 O2          27.0066  36.9974  40.1917 O.3            1 <1>                0.0000
      3 C3          28.0392  36.8445  39.3479 C.2            1 <1>                0.0000
      4 O4          27.8369  36.7003  38.1654 O.2            1 <1>                0.0000
      5 C5          29.4509  36.8526  39.8753 C.3            1 <1>                0.0000
      6 N6          29.5995  35.8035  40.8928 N.3            1 <1>                0.0000
      7 C7          30.4115  36.5941  38.7433 C.ar           1 <1>                0.0000
      8 C8          31.2510  35.4964  38.7860 C.ar           1 <1>                0.0000
      9 C9          32.1321  35.2593  37.7479 C.ar           1 <1>                0.0000
     10 C10         32.1737  36.1197  36.6664 C.ar           1 <1>                0.0000
     11 C11         31.3340  37.2166  36.6233 C.ar           1 <1>                0.0000
     12 C12         30.4495  37.4513  37.6597 C.ar           1 <1>                0.0000
     13 C13         31.3797  38.1547  35.4447 C.3            1 <1>                0.0000
     14 F14         31.0443  39.4466  35.8639 F              1 <1>                0.0000
     15 F15         32.6696  38.1604  34.9031 F              1 <1>                0.0000
     16 F16         30.4679  37.7280  34.4734 F              1 <1>                0.0000
     17 H17         24.9480  37.2690  40.3907 H              1 <1>                0.0000
     18 H18         25.6811  38.0395  38.9634 H              1 <1>                0.0000
     19 H19         25.4521  36.2748  39.0031 H              1 <1>                0.0000
     20 H20         29.6669  37.8238  40.3204 H              1 <1>                0.0000
     21 H21         31.2184  34.8242  39.6308 H              1 <1>                0.0000
     22 H22         32.7883  34.4022  37.7816 H              1 <1>                0.0000
     23 H23         32.8628  35.9348  35.8555 H              1 <1>                0.0000
     24 H24         29.7934  38.3084  37.6260 H              1 <1>                0.0000
     25 H25         29.1590  34.9459  40.5951 H              1 <1>                0.0000
     26 H26         30.5717  35.6519  41.1165 H              1 <1>                0.0000
@<TRIPOS>BOND
    1    1    2 1     
    2    1   17 1     
    3    1   18 1     
    4    1   19 1     
    5    2    3 1     
    6    3    4 2     
    7    3    5 1     
    8    5    6 1     
    9    5    7 1     
   10    5   20 1     
   11    6   25 1     
   12    6   26 1     
   13    7    8 ar    
   14    7   12 ar    
   15    8    9 ar    
   16    8   21 1     
   17    9   10 ar    
   18    9   22 1     
   19   10   11 ar    
   20   10   23 1     
   21   11   12 ar    
   22   11   13 1     
   23   12   24 1     
   24   13   14 1     
   25   13   15 1     
   26   13   16 1     
@<TRIPOS>SUBSTRUCTURE
      1 ****           1
@<TRIPOS>SET
DONOR_HYDROGENS      STATIC     ATOMS    <user>   **** ""
2 25 26
ATOM$RED        STATIC     ATOMS    COLORGROUP SYSTEM
2 25 26
@<TRIPOS>COMMENT
> <Gold.Version>
2022.2.0

> <Gold.Id.Protein>
1qkm|1qkm_protein|mol2

> <Gold.Protein.RotatedTorsions>
[  496  491  490  487 ] final  -80.67 input  -89.99 | X-H torsion

> <Gold.Protein.ActiveResidues>
 MET295  LEU298  THR299  LEU301  ALA302  GLU305  TRP335  MET336  LEU339  MET340 
 GLY342  LEU343  ARG346  PHE356  ILE373  ILE376  PHE377  LEU380  LYS471  GLY472 
 MET473  HIS475  LEU476  LEU477  ASN478  MET479  VAL484  VAL487 

> <Gold.Protein.RotatedAtoms>
   36.6720   34.7035   41.1964 H   0  0  0  0  0  0  0  0  0  0  0  0  # atno 496  bound_to 491 

> <Gold.Score>
     Score     S(PLP)   S(hbond)     S(cho)   S(metal)  DE(clash)   DE(tors)     intcor
     50.59     -49.70       1.00       0.00       0.00       2.30       1.20       2.58

> <Gold.PLP.Fitness>
50.5891

> <Gold.PLP.PLP>
-49.7034

> <Gold.PLP.part.hbond>
-1.0000

> <Gold.PLP.part.metal>
0.0000

> <Gold.PLP.part.buried>
-3.7520

> <Gold.PLP.part.nonpolar>
-44.8731

> <Gold.PLP.part.repulsive>
0.0444

> <Gold.PLP.ligand.clash>
2.2959

> <Gold.PLP.ligand.torsion>
1.1988

> <Gold.PLP.Chemscore.Hbond>
1.0000

> <Gold.PLP.Chemscore.CHOScore>
0.0000

> <Gold.PLP.Chemscore.Metal>
0.0000

> <Gold.Chemscore.Hbonds>
donor molecule, donor type, donor heavy atom, donor atom, acceptor molecule, acceptor atom, score
      L1  H     6    26       P1   470  1.00

> <Gold.PLP.Chemscore.Internal.Correction>
2.5792

