#       Name:                EN300-367353_i002
#       Creating user name   aseyller
#       Creation time:       Fri Apr 21 12:42:50 2023


#       File generated by GOLD software.
#

@<TRIPOS>MOLECULE
EN300-367353_i002|amine_3|mol2|95|dock13
    26    26     1
SMALL
USER_CHARGES


@<TRIPOS>ATOM
      1 C1          25.8595  36.3964  40.8887 C.3            1 <1>                0.0000
      2 O2          27.2784  36.6990  40.8303 O.3            1 <1>                0.0000
      3 C3          27.9376  36.3188  39.7246 C.2            1 <1>                0.0000
      4 O4          27.3628  35.6980  38.8620 O.2            1 <1>                0.0000
      5 C5          29.3947  36.6662  39.5591 C.3            1 <1>                0.0000
      6 N6          30.1975  35.4363  39.5864 N.3            1 <1>                0.0000
      7 C7          29.5969  37.3690  38.2414 C.ar           1 <1>                0.0000
      8 C8          28.6326  38.2386  37.7666 C.ar           1 <1>                0.0000
      9 C9          28.8181  38.8831  36.5580 C.ar           1 <1>                0.0000
     10 C10         29.9682  38.6585  35.8242 C.ar           1 <1>                0.0000
     11 C11         30.9325  37.7899  36.2993 C.ar           1 <1>                0.0000
     12 C12         30.7490  37.1485  37.5103 C.ar           1 <1>                0.0000
     13 C13         32.1858  37.5447  35.4991 C.3            1 <1>                0.0000
     14 F14         32.3249  36.1735  35.2590 F              1 <1>                0.0000
     15 F15         32.1012  38.2255  34.2798 F              1 <1>                0.0000
     16 F16         33.2946  38.0075  36.2157 F              1 <1>                0.0000
     17 H17         25.4497  36.7565  41.8323 H              1 <1>                0.0000
     18 H18         25.3489  36.8871  40.0600 H              1 <1>                0.0000
     19 H19         25.7146  35.3184  40.8175 H              1 <1>                0.0000
     20 H20         29.7065  37.3218  40.3721 H              1 <1>                0.0000
     21 H21         27.7343  38.4140  38.3399 H              1 <1>                0.0000
     22 H22         28.0646  39.5619  36.1868 H              1 <1>                0.0000
     23 H23         30.1127  39.1616  34.8795 H              1 <1>                0.0000
     24 H24         31.5025  36.4697  37.8815 H              1 <1>                0.0000
     25 H25         30.7930  35.4112  40.4006 H              1 <1>                0.0000
     26 H26         29.6077  34.6185  39.5445 H              1 <1>                0.0000
@<TRIPOS>BOND
    1    1    2 1     
    2    1   17 1     
    3    1   18 1     
    4    1   19 1     
    5    2    3 1     
    6    3    4 2     
    7    3    5 1     
    8    5    6 1     
    9    5    7 1     
   10    5   20 1     
   11    6   25 1     
   12    6   26 1     
   13    7    8 ar    
   14    7   12 ar    
   15    8    9 ar    
   16    8   21 1     
   17    9   10 ar    
   18    9   22 1     
   19   10   11 ar    
   20   10   23 1     
   21   11   12 ar    
   22   11   13 1     
   23   12   24 1     
   24   13   14 1     
   25   13   15 1     
   26   13   16 1     
@<TRIPOS>SUBSTRUCTURE
      1 ****           1
@<TRIPOS>SET
DONOR_HYDROGENS      STATIC     ATOMS    <user>   **** ""
2 25 26
ATOM$RED        STATIC     ATOMS    COLORGROUP SYSTEM
2 25 26
@<TRIPOS>COMMENT
> <Gold.Version>
2022.2.0

> <Gold.Id.Protein>
1qkm|1qkm_protein|mol2

> <Gold.Protein.RotatedTorsions>
[  496  491  490  487 ] final   74.32 input  -89.99 | X-H torsion

> <Gold.Protein.ActiveResidues>
 MET295  LEU298  THR299  LEU301  ALA302  GLU305  TRP335  MET336  LEU339  MET340 
 GLY342  LEU343  ARG346  PHE356  ILE373  ILE376  PHE377  LEU380  LYS471  GLY472 
 MET473  HIS475  LEU476  LEU477  ASN478  MET479  VAL484  VAL487 

> <Gold.Protein.RotatedAtoms>
   36.6761   33.1539   42.1916 H   0  0  0  0  0  0  0  0  0  0  0  0  # atno 496  bound_to 491 

> <Gold.Score>
     Score     S(PLP)   S(hbond)     S(cho)   S(metal)  DE(clash)   DE(tors)     intcor
     46.33     -45.46       1.00       0.00       0.00       3.02       0.83       2.55

> <Gold.PLP.Fitness>
46.3340

> <Gold.PLP.PLP>
-45.4554

> <Gold.PLP.part.hbond>
-1.0000

> <Gold.PLP.part.metal>
0.0000

> <Gold.PLP.part.buried>
-4.2988

> <Gold.PLP.part.nonpolar>
-40.4142

> <Gold.PLP.part.repulsive>
0.0629

> <Gold.PLP.ligand.clash>
3.0166

> <Gold.PLP.ligand.torsion>
0.8280

> <Gold.PLP.Chemscore.Hbond>
1.0000

> <Gold.PLP.Chemscore.CHOScore>
0.0000

> <Gold.PLP.Chemscore.Metal>
0.0000

> <Gold.Chemscore.Hbonds>
donor molecule, donor type, donor heavy atom, donor atom, acceptor molecule, acceptor atom, score
      L1  H     6    25       P1   470  1.00

> <Gold.PLP.Chemscore.Internal.Correction>
2.5512

