#       Name:                EN300-132481_i001
#       Creating user name   aseyller
#       Creation time:       Fri Apr 21 19:20:34 2023


#       File generated by GOLD software.
#

@<TRIPOS>MOLECULE
EN300-132481_i001|benzaldehydes|mol2|796|dock2
    28    29     1
SMALL
USER_CHARGES


@<TRIPOS>ATOM
      1 C1          31.9144  38.4586  34.6127 C.3            1 <1>                0.0000
      2 C2          32.1701  36.9984  34.9913 C.3            1 <1>                0.0000
      3 C3          33.6669  36.6993  34.8878 C.3            1 <1>                0.0000
      4 N4          31.7178  36.7633  36.3689 N.3            1 <1>                0.0000
      5 C5          32.0227  35.3907  36.7964 C.3            1 <1>                0.0000
      6 C6          31.9166  35.2923  38.3209 C.3            1 <1>                0.0000
      7 C7          30.5749  35.8798  38.7426 C.2            1 <1>                0.0000
      8 N8          30.0193  35.6777  39.9132 N.2            1 <1>                0.0000
      9 C9          28.8655  36.2495  40.1219 C.2            1 <1>                0.0000
     10 C10         28.0788  36.1540  41.3526 C.2            1 <1>                0.0000
     11 O11         26.9917  36.6888  41.4208 O.2            1 <1>                0.0000
     12 S12         28.4088  37.1547  38.6833 S.3            1 <1>                0.0000
     13 C13         29.8508  36.6710  37.9078 C.2            1 <1>                0.0000
     14 C14         30.2814  37.0503  36.5087 C.3            1 <1>                0.0000
     15 H15         32.4632  39.1113  35.2916 H              1 <1>                0.0000
     16 H16         32.2499  38.6331  33.5904 H              1 <1>                0.0000
     17 H17         30.8480  38.6718  34.6864 H              1 <1>                0.0000
     18 H18         31.6213  36.3457  34.3123 H              1 <1>                0.0000
     19 H19         34.2157  37.3520  35.5667 H              1 <1>                0.0000
     20 H20         33.8491  35.6590  35.1574 H              1 <1>                0.0000
     21 H21         34.0025  36.8737  33.8654 H              1 <1>                0.0000
     22 H22         31.3134  34.7017  36.3379 H              1 <1>                0.0000
     23 H23         33.0344  35.1300  36.4853 H              1 <1>                0.0000
     24 H24         31.9734  34.2477  38.6270 H              1 <1>                0.0000
     25 H25         32.7268  35.8562  38.7832 H              1 <1>                0.0000
     26 H26         28.4659  35.6076  42.1999 H              1 <1>                0.0000
     27 H27         30.1024  38.1131  36.3457 H              1 <1>                0.0000
     28 H28         29.7189  36.4653  35.7810 H              1 <1>                0.0000
@<TRIPOS>BOND
    1    1    2 1     
    2    1   15 1     
    3    1   16 1     
    4    1   17 1     
    5    2    3 1     
    6    2    4 1     
    7    2   18 1     
    8    3   19 1     
    9    3   20 1     
   10    3   21 1     
   11    4    5 1     
   12    4   14 1     
   13    5    6 1     
   14    5   22 1     
   15    5   23 1     
   16    6    7 1     
   17    6   24 1     
   18    6   25 1     
   19    7    8 1     
   20    7   13 2     
   21    8    9 2     
   22    9   10 1     
   23    9   12 1     
   24   10   11 2     
   25   10   26 1     
   26   12   13 1     
   27   13   14 1     
   28   14   27 1     
   29   14   28 1     
@<TRIPOS>SUBSTRUCTURE
      1 ****           1
@<TRIPOS>COMMENT
> <Gold.Version>
2022.2.0

> <Gold.Id.Protein>
1qkm|1qkm_protein|mol2

> <Gold.Protein.RotatedTorsions>
[  496  491  490  487 ] final  171.05 input  -89.99 | X-H torsion

> <Gold.Protein.ActiveResidues>
 MET295  LEU298  THR299  LEU301  ALA302  GLU305  TRP335  MET336  LEU339  MET340 
 GLY342  LEU343  ARG346  PHE356  ILE373  ILE376  PHE377  LEU380  LYS471  GLY472 
 MET473  HIS475  LEU476  LEU477  ASN478  MET479  VAL484  VAL487 

> <Gold.Protein.RotatedAtoms>
   37.3163   33.3393   40.9493 H   0  0  0  0  0  0  0  0  0  0  0  0  # atno 496  bound_to 491 

> <Gold.Score>
     Score     S(PLP)   S(hbond)     S(cho)   S(metal)  DE(clash)   DE(tors)     intcor
     43.58     -43.59       0.00       0.00       0.00       0.00       0.01       0.01

> <Gold.PLP.Fitness>
43.5834

> <Gold.PLP.PLP>
-43.5918

> <Gold.PLP.part.hbond>
0.0000

> <Gold.PLP.part.metal>
0.0000

> <Gold.PLP.part.buried>
-3.8439

> <Gold.PLP.part.nonpolar>
-41.6202

> <Gold.PLP.part.repulsive>
1.8361

> <Gold.PLP.ligand.clash>
0.0000

> <Gold.PLP.ligand.torsion>
0.0080

> <Gold.PLP.Chemscore.Hbond>
0.0000

> <Gold.PLP.Chemscore.CHOScore>
0.0000

> <Gold.PLP.Chemscore.Metal>
0.0000

> <Gold.PLP.Chemscore.Internal.Correction>
0.0076

