#       Name:                EN300-132481_i001
#       Creating user name   aseyller
#       Creation time:       Fri Apr 21 19:20:41 2023


#       File generated by GOLD software.
#

@<TRIPOS>MOLECULE
EN300-132481_i001|benzaldehydes|mol2|796|dock17
    28    29     1
SMALL
USER_CHARGES


@<TRIPOS>ATOM
      1 C1          32.7892  36.1823  35.5817 C.3            1 <1>                0.0000
      2 C2          32.6235  35.7981  37.0534 C.3            1 <1>                0.0000
      3 C3          33.6071  36.6037  37.9046 C.3            1 <1>                0.0000
      4 N4          31.2498  36.0902  37.4841 N.3            1 <1>                0.0000
      5 C5          31.0006  37.5384  37.5031 C.3            1 <1>                0.0000
      6 C6          29.4926  37.7991  37.5582 C.3            1 <1>                0.0000
      7 C7          28.9082  36.9687  38.6950 C.2            1 <1>                0.0000
      8 N8          27.7284  37.1788  39.2275 N.2            1 <1>                0.0000
      9 C9          27.3711  36.3814  40.1961 C.2            1 <1>                0.0000
     10 C10         26.1024  36.4416  40.9236 C.2            1 <1>                0.0000
     11 O11         25.4617  37.4721  40.9418 O.2            1 <1>                0.0000
     12 S12         28.6624  35.2210  40.4855 S.3            1 <1>                0.0000
     13 C13         29.5935  35.9307  39.2429 C.2            1 <1>                0.0000
     14 C14         30.9709  35.4918  38.7991 C.3            1 <1>                0.0000
     15 H15         32.5886  37.2466  35.4593 H              1 <1>                0.0000
     16 H16         33.8085  35.9655  35.2621 H              1 <1>                0.0000
     17 H17         32.0885  35.6083  34.9752 H              1 <1>                0.0000
     18 H18         32.8241  34.7337  37.1758 H              1 <1>                0.0000
     19 H19         33.4065  37.6681  37.7822 H              1 <1>                0.0000
     20 H20         33.4891  36.3300  38.9531 H              1 <1>                0.0000
     21 H21         34.6264  36.3869  37.5850 H              1 <1>                0.0000
     22 H22         31.4772  37.9773  38.3797 H              1 <1>                0.0000
     23 H23         31.4143  37.9898  36.6013 H              1 <1>                0.0000
     24 H24         29.3087  38.8575  37.7434 H              1 <1>                0.0000
     25 H25         29.0337  37.5051  36.6143 H              1 <1>                0.0000
     26 H26         25.7365  35.5690  41.4442 H              1 <1>                0.0000
     27 H27         31.0016  34.4050  38.7212 H              1 <1>                0.0000
     28 H28         31.7138  35.8314  39.5207 H              1 <1>                0.0000
@<TRIPOS>BOND
    1    1    2 1     
    2    1   15 1     
    3    1   16 1     
    4    1   17 1     
    5    2    3 1     
    6    2    4 1     
    7    2   18 1     
    8    3   19 1     
    9    3   20 1     
   10    3   21 1     
   11    4    5 1     
   12    4   14 1     
   13    5    6 1     
   14    5   22 1     
   15    5   23 1     
   16    6    7 1     
   17    6   24 1     
   18    6   25 1     
   19    7    8 1     
   20    7   13 2     
   21    8    9 2     
   22    9   10 1     
   23    9   12 1     
   24   10   11 2     
   25   10   26 1     
   26   12   13 1     
   27   13   14 1     
   28   14   27 1     
   29   14   28 1     
@<TRIPOS>SUBSTRUCTURE
      1 ****           1
@<TRIPOS>COMMENT
> <Gold.Version>
2022.2.0

> <Gold.Id.Protein>
1qkm|1qkm_protein|mol2

> <Gold.Protein.RotatedTorsions>
[  496  491  490  487 ] final   23.35 input  -89.99 | X-H torsion

> <Gold.Protein.ActiveResidues>
 MET295  LEU298  THR299  LEU301  ALA302  GLU305  TRP335  MET336  LEU339  MET340 
 GLY342  LEU343  ARG346  PHE356  ILE373  ILE376  PHE377  LEU380  LYS471  GLY472 
 MET473  HIS475  LEU476  LEU477  ASN478  MET479  VAL484  VAL487 

> <Gold.Protein.RotatedAtoms>
   36.3155   33.8595   42.3673 H   0  0  0  0  0  0  0  0  0  0  0  0  # atno 496  bound_to 491 

> <Gold.Score>
     Score     S(PLP)   S(hbond)     S(cho)   S(metal)  DE(clash)   DE(tors)     intcor
     39.84     -40.23       0.00       0.00       0.00       0.00       0.20       0.01

> <Gold.PLP.Fitness>
39.8382

> <Gold.PLP.PLP>
-40.2251

> <Gold.PLP.part.hbond>
0.0000

> <Gold.PLP.part.metal>
0.0000

> <Gold.PLP.part.buried>
-2.9889

> <Gold.PLP.part.nonpolar>
-37.9504

> <Gold.PLP.part.repulsive>
0.1475

> <Gold.PLP.ligand.clash>
0.0000

> <Gold.PLP.ligand.torsion>
0.1973

> <Gold.PLP.Chemscore.Hbond>
0.0000

> <Gold.PLP.Chemscore.CHOScore>
0.0000

> <Gold.PLP.Chemscore.Metal>
0.0000

> <Gold.PLP.Chemscore.Internal.Correction>
0.0076

