#       Name:                EN300-132481_i001
#       Creating user name   aseyller
#       Creation time:       Fri Apr 21 19:20:42 2023


#       File generated by GOLD software.
#

@<TRIPOS>MOLECULE
EN300-132481_i001|benzaldehydes|mol2|796|dock20
    28    29     1
SMALL
USER_CHARGES


@<TRIPOS>ATOM
      1 C1          26.8997  35.8034  40.0055 C.3            1 <1>                0.0000
      2 C2          27.9623  36.6707  40.6835 C.3            1 <1>                0.0000
      3 C3          28.5031  35.9439  41.9165 C.3            1 <1>                0.0000
      4 N4          29.0617  36.9233  39.7426 N.3            1 <1>                0.0000
      5 C5          28.5725  37.5905  38.5280 C.3            1 <1>                0.0000
      6 C6          29.7538  38.1932  37.7622 C.3            1 <1>                0.0000
      7 C7          30.8127  37.1099  37.5930 C.2            1 <1>                0.0000
      8 N8          31.7982  37.1737  36.7303 N.2            1 <1>                0.0000
      9 C9          32.6229  36.1633  36.7054 C.2            1 <1>                0.0000
     10 C10         33.7839  36.0342  35.8233 C.2            1 <1>                0.0000
     11 O11         33.8534  36.6990  34.8105 O.2            1 <1>                0.0000
     12 S12         32.1130  34.9809  37.9052 S.3            1 <1>                0.0000
     13 C13         30.7999  35.9788  38.3465 C.2            1 <1>                0.0000
     14 C14         29.7672  35.6758  39.4088 C.3            1 <1>                0.0000
     15 H15         27.3439  34.8552  39.7026 H              1 <1>                0.0000
     16 H16         26.0840  35.6161  40.7036 H              1 <1>                0.0000
     17 H17         26.5144  36.3213  39.1271 H              1 <1>                0.0000
     18 H18         27.5182  37.6189  40.9864 H              1 <1>                0.0000
     19 H19         28.9472  34.9956  41.6136 H              1 <1>                0.0000
     20 H20         29.2601  36.5617  42.3996 H              1 <1>                0.0000
     21 H21         27.6873  35.7565  42.6147 H              1 <1>                0.0000
     22 H22         28.0623  36.8642  37.8953 H              1 <1>                0.0000
     23 H23         27.8768  38.3828  38.8043 H              1 <1>                0.0000
     24 H24         29.4204  38.5379  36.7834 H              1 <1>                0.0000
     25 H25         30.1693  39.0290  38.3252 H              1 <1>                0.0000
     26 H26         34.5786  35.3472  36.0738 H              1 <1>                0.0000
     27 H27         30.2608  35.2846  40.2985 H              1 <1>                0.0000
     28 H28         29.0552  34.9430  39.0293 H              1 <1>                0.0000
@<TRIPOS>BOND
    1    1    2 1     
    2    1   15 1     
    3    1   16 1     
    4    1   17 1     
    5    2    3 1     
    6    2    4 1     
    7    2   18 1     
    8    3   19 1     
    9    3   20 1     
   10    3   21 1     
   11    4    5 1     
   12    4   14 1     
   13    5    6 1     
   14    5   22 1     
   15    5   23 1     
   16    6    7 1     
   17    6   24 1     
   18    6   25 1     
   19    7    8 1     
   20    7   13 2     
   21    8    9 2     
   22    9   10 1     
   23    9   12 1     
   24   10   11 2     
   25   10   26 1     
   26   12   13 1     
   27   13   14 1     
   28   14   27 1     
   29   14   28 1     
@<TRIPOS>SUBSTRUCTURE
      1 ****           1
@<TRIPOS>COMMENT
> <Gold.Version>
2022.2.0

> <Gold.Id.Protein>
1qkm|1qkm_protein|mol2

> <Gold.Protein.RotatedTorsions>
[  496  491  490  487 ] final  141.83 input  -89.99 | X-H torsion

> <Gold.Protein.ActiveResidues>
 MET295  LEU298  THR299  LEU301  ALA302  GLU305  TRP335  MET336  LEU339  MET340 
 GLY342  LEU343  ARG346  PHE356  ILE373  ILE376  PHE377  LEU380  LYS471  GLY472 
 MET473  HIS475  LEU476  LEU477  ASN478  MET479  VAL484  VAL487 

> <Gold.Protein.RotatedAtoms>
   37.2242   33.0379   41.3058 H   0  0  0  0  0  0  0  0  0  0  0  0  # atno 496  bound_to 491 

> <Gold.Score>
     Score     S(PLP)   S(hbond)     S(cho)   S(metal)  DE(clash)   DE(tors)     intcor
     43.09     -43.29       0.00       0.00       0.00       0.00       0.10       0.01

> <Gold.PLP.Fitness>
43.0896

> <Gold.PLP.PLP>
-43.2861

> <Gold.PLP.part.hbond>
0.0000

> <Gold.PLP.part.metal>
0.0000

> <Gold.PLP.part.buried>
-4.2221

> <Gold.PLP.part.nonpolar>
-39.5439

> <Gold.PLP.part.repulsive>
0.2316

> <Gold.PLP.ligand.clash>
0.0000

> <Gold.PLP.ligand.torsion>
0.1021

> <Gold.PLP.Chemscore.Hbond>
0.0000

> <Gold.PLP.Chemscore.CHOScore>
0.0000

> <Gold.PLP.Chemscore.Metal>
0.0000

> <Gold.PLP.Chemscore.Internal.Correction>
0.0076

