#       Name:                EN300-132481_i001
#       Creating user name   aseyller
#       Creation time:       Fri Apr 21 19:20:40 2023


#       File generated by GOLD software.
#

@<TRIPOS>MOLECULE
EN300-132481_i001|benzaldehydes|mol2|796|dock14
    28    29     1
SMALL
USER_CHARGES


@<TRIPOS>ATOM
      1 C1          32.3791  36.0670  36.6569 C.3            1 <1>                0.0000
      2 C2          31.5394  37.3345  36.4854 C.3            1 <1>                0.0000
      3 C3          31.3107  37.5971  34.9956 C.3            1 <1>                0.0000
      4 N4          30.2444  37.1583  37.1561 N.3            1 <1>                0.0000
      5 C5          29.3725  38.3198  36.9313 C.3            1 <1>                0.0000
      6 C6          27.9280  37.9533  37.2834 C.3            1 <1>                0.0000
      7 C7          27.9222  37.3265  38.6728 C.2            1 <1>                0.0000
      8 N8          26.8479  37.1869  39.4117 N.2            1 <1>                0.0000
      9 C9          27.0078  36.6316  40.5812 C.2            1 <1>                0.0000
     10 C10         25.9459  36.3826  41.5574 C.2            1 <1>                0.0000
     11 O11         24.9352  37.0540  41.5389 O.2            1 <1>                0.0000
     12 S12         28.7081  36.2299  40.7943 S.3            1 <1>                0.0000
     13 C13         29.0623  36.8613  39.2481 C.2            1 <1>                0.0000
     14 C14         30.4253  36.9078  38.5947 C.3            1 <1>                0.0000
     15 H15         31.8533  35.2205  36.2152 H              1 <1>                0.0000
     16 H16         33.3400  36.1977  36.1593 H              1 <1>                0.0000
     17 H17         32.5421  35.8799  37.7183 H              1 <1>                0.0000
     18 H18         32.0652  38.1811  36.9271 H              1 <1>                0.0000
     19 H19         30.7850  36.7506  34.5539 H              1 <1>                0.0000
     20 H20         30.7125  38.5001  34.8735 H              1 <1>                0.0000
     21 H21         32.2717  37.7278  34.4980 H              1 <1>                0.0000
     22 H22         29.7008  39.1473  37.5604 H              1 <1>                0.0000
     23 H23         29.4267  38.6170  35.8839 H              1 <1>                0.0000
     24 H24         27.3098  38.8511  37.2822 H              1 <1>                0.0000
     25 H25         27.5420  37.2391  36.5561 H              1 <1>                0.0000
     26 H26         26.0618  35.6015  42.2940 H              1 <1>                0.0000
     27 H27         30.9338  35.9546  38.7397 H              1 <1>                0.0000
     28 H28         31.0153  37.7117  39.0348 H              1 <1>                0.0000
@<TRIPOS>BOND
    1    1    2 1     
    2    1   15 1     
    3    1   16 1     
    4    1   17 1     
    5    2    3 1     
    6    2    4 1     
    7    2   18 1     
    8    3   19 1     
    9    3   20 1     
   10    3   21 1     
   11    4    5 1     
   12    4   14 1     
   13    5    6 1     
   14    5   22 1     
   15    5   23 1     
   16    6    7 1     
   17    6   24 1     
   18    6   25 1     
   19    7    8 1     
   20    7   13 2     
   21    8    9 2     
   22    9   10 1     
   23    9   12 1     
   24   10   11 2     
   25   10   26 1     
   26   12   13 1     
   27   13   14 1     
   28   14   27 1     
   29   14   28 1     
@<TRIPOS>SUBSTRUCTURE
      1 ****           1
@<TRIPOS>COMMENT
> <Gold.Version>
2022.2.0

> <Gold.Id.Protein>
1qkm|1qkm_protein|mol2

> <Gold.Protein.RotatedTorsions>
[  496  491  490  487 ] final  -12.80 input  -89.99 | X-H torsion

> <Gold.Protein.ActiveResidues>
 MET295  LEU298  THR299  LEU301  ALA302  GLU305  TRP335  MET336  LEU339  MET340 
 GLY342  LEU343  ARG346  PHE356  ILE373  ILE376  PHE377  LEU380  LYS471  GLY472 
 MET473  HIS475  LEU476  LEU477  ASN478  MET479  VAL484  VAL487 

> <Gold.Protein.RotatedAtoms>
   36.2659   34.3850   42.1143 H   0  0  0  0  0  0  0  0  0  0  0  0  # atno 496  bound_to 491 

> <Gold.Score>
     Score     S(PLP)   S(hbond)     S(cho)   S(metal)  DE(clash)   DE(tors)     intcor
     41.30     -40.27       0.43       0.00       0.00       0.00       0.14       0.01

> <Gold.PLP.Fitness>
41.3021

> <Gold.PLP.PLP>
-40.2719

> <Gold.PLP.part.hbond>
-1.0000

> <Gold.PLP.part.metal>
0.0000

> <Gold.PLP.part.buried>
-1.4196

> <Gold.PLP.part.nonpolar>
-38.4243

> <Gold.PLP.part.repulsive>
0.2748

> <Gold.PLP.ligand.clash>
0.0000

> <Gold.PLP.ligand.torsion>
0.1367

> <Gold.PLP.Chemscore.Hbond>
0.4320

> <Gold.PLP.Chemscore.CHOScore>
0.0000

> <Gold.PLP.Chemscore.Metal>
0.0000

> <Gold.Chemscore.Hbonds>
donor molecule, donor type, donor heavy atom, donor atom, acceptor molecule, acceptor atom, score
      P1  H  1258  1270       L1    11  0.43

> <Gold.PLP.Chemscore.Internal.Correction>
0.0076

