#       Name:                EN300-132481_i001
#       Creating user name   aseyller
#       Creation time:       Fri Apr 21 19:20:38 2023


#       File generated by GOLD software.
#

@<TRIPOS>MOLECULE
EN300-132481_i001|benzaldehydes|mol2|796|dock10
    28    29     1
SMALL
USER_CHARGES


@<TRIPOS>ATOM
      1 C1          32.0275  38.3786  34.3098 C.3            1 <1>                0.0000
      2 C2          32.1755  36.9941  34.9443 C.3            1 <1>                0.0000
      3 C3          33.6568  36.7029  35.1928 C.3            1 <1>                0.0000
      4 N4          31.4489  36.9600  36.2204 N.3            1 <1>                0.0000
      5 C5          31.7811  35.7488  36.9834 C.3            1 <1>                0.0000
      6 C6          31.3436  35.9238  38.4405 C.3            1 <1>                0.0000
      7 C7          29.8908  36.3848  38.4481 C.2            1 <1>                0.0000
      8 N8          29.1075  36.3293  39.4984 N.2            1 <1>                0.0000
      9 C9          27.8865  36.7616  39.3436 C.2            1 <1>                0.0000
     10 C10         26.8553  36.7885  40.3821 C.2            1 <1>                0.0000
     11 O11         25.7436  37.2000  40.1227 O.2            1 <1>                0.0000
     12 S12         27.6808  37.3077  37.6832 S.3            1 <1>                0.0000
     13 C13         29.3007  36.8954  37.3353 C.2            1 <1>                0.0000
     14 C14         29.9971  37.0626  36.0036 C.3            1 <1>                0.0000
     15 H15         32.4381  39.1320  34.9821 H              1 <1>                0.0000
     16 H16         32.5666  38.4039  33.3629 H              1 <1>                0.0000
     17 H17         30.9721  38.5861  34.1327 H              1 <1>                0.0000
     18 H18         31.7649  36.2407  34.2720 H              1 <1>                0.0000
     19 H19         34.0675  37.4563  35.8650 H              1 <1>                0.0000
     20 H20         33.7624  35.7166  35.6447 H              1 <1>                0.0000
     21 H21         34.1960  36.7282  34.2458 H              1 <1>                0.0000
     22 H22         31.2639  34.8930  36.5493 H              1 <1>                0.0000
     23 H23         32.8573  35.5796  36.9453 H              1 <1>                0.0000
     24 H24         31.4309  34.9736  38.9675 H              1 <1>                0.0000
     25 H25         31.9698  36.6728  38.9252 H              1 <1>                0.0000
     26 H26         27.0838  36.4421  41.3791 H              1 <1>                0.0000
     27 H27         29.7572  38.0401  35.5849 H              1 <1>                0.0000
     28 H28         29.6730  36.2784  35.3195 H              1 <1>                0.0000
@<TRIPOS>BOND
    1    1    2 1     
    2    1   15 1     
    3    1   16 1     
    4    1   17 1     
    5    2    3 1     
    6    2    4 1     
    7    2   18 1     
    8    3   19 1     
    9    3   20 1     
   10    3   21 1     
   11    4    5 1     
   12    4   14 1     
   13    5    6 1     
   14    5   22 1     
   15    5   23 1     
   16    6    7 1     
   17    6   24 1     
   18    6   25 1     
   19    7    8 1     
   20    7   13 2     
   21    8    9 2     
   22    9   10 1     
   23    9   12 1     
   24   10   11 2     
   25   10   26 1     
   26   12   13 1     
   27   13   14 1     
   28   14   27 1     
   29   14   28 1     
@<TRIPOS>SUBSTRUCTURE
      1 ****           1
@<TRIPOS>COMMENT
> <Gold.Version>
2022.2.0

> <Gold.Id.Protein>
1qkm|1qkm_protein|mol2

> <Gold.Protein.RotatedTorsions>
[  496  491  490  487 ] final    3.04 input  -89.99 | X-H torsion

> <Gold.Protein.ActiveResidues>
 MET295  LEU298  THR299  LEU301  ALA302  GLU305  TRP335  MET336  LEU339  MET340 
 GLY342  LEU343  ARG346  PHE356  ILE373  ILE376  PHE377  LEU380  LYS471  GLY472 
 MET473  HIS475  LEU476  LEU477  ASN478  MET479  VAL484  VAL487 

> <Gold.Protein.RotatedAtoms>
   36.2621   34.1699   42.2601 H   0  0  0  0  0  0  0  0  0  0  0  0  # atno 496  bound_to 491 

> <Gold.Score>
     Score     S(PLP)   S(hbond)     S(cho)   S(metal)  DE(clash)   DE(tors)     intcor
     41.86     -42.03       0.00       0.00       0.00       0.00       0.09       0.01

> <Gold.PLP.Fitness>
41.8589

> <Gold.PLP.PLP>
-42.0316

> <Gold.PLP.part.hbond>
0.0000

> <Gold.PLP.part.metal>
0.0000

> <Gold.PLP.part.buried>
-4.6564

> <Gold.PLP.part.nonpolar>
-37.6815

> <Gold.PLP.part.repulsive>
0.1761

> <Gold.PLP.ligand.clash>
0.0000

> <Gold.PLP.ligand.torsion>
0.0902

> <Gold.PLP.Chemscore.Hbond>
0.0000

> <Gold.PLP.Chemscore.CHOScore>
0.0000

> <Gold.PLP.Chemscore.Metal>
0.0000

> <Gold.PLP.Chemscore.Internal.Correction>
0.0076

