#       Name:                EN300-132481_i001
#       Creating user name   aseyller
#       Creation time:       Fri Apr 21 19:20:39 2023


#       File generated by GOLD software.
#

@<TRIPOS>MOLECULE
EN300-132481_i001|benzaldehydes|mol2|796|dock13
    28    29     1
SMALL
USER_CHARGES


@<TRIPOS>ATOM
      1 C1          32.7352  36.1166  35.5482 C.3            1 <1>                0.0000
      2 C2          32.2846  37.5776  35.6084 C.3            1 <1>                0.0000
      3 C3          32.3939  38.2026  34.2163 C.3            1 <1>                0.0000
      4 N4          30.8902  37.6415  36.0659 N.3            1 <1>                0.0000
      5 C5          30.4403  39.0349  36.1910 C.3            1 <1>                0.0000
      6 C6          28.9116  39.0754  36.2723 C.3            1 <1>                0.0000
      7 C7          28.4670  38.0923  37.3489 C.2            1 <1>                0.0000
      8 N8          27.2775  38.0953  37.9010 N.2            1 <1>                0.0000
      9 C9          27.0505  37.1886  38.8111 C.2            1 <1>                0.0000
     10 C10         25.7971  37.0173  39.5474 C.2            1 <1>                0.0000
     11 O11         25.7908  36.4207  40.6041 O.2            1 <1>                0.0000
     12 S12         28.4962  36.2047  39.0093 S.3            1 <1>                0.0000
     13 C13         29.2995  37.1252  37.8167 C.2            1 <1>                0.0000
     14 C14         30.7180  36.9178  37.3355 C.3            1 <1>                0.0000
     15 H15         32.0991  35.5687  34.8530 H              1 <1>                0.0000
     16 H16         33.7699  36.0691  35.2088 H              1 <1>                0.0000
     17 H17         32.6574  35.6712  36.5401 H              1 <1>                0.0000
     18 H18         32.9207  38.1255  36.3037 H              1 <1>                0.0000
     19 H19         31.7579  37.6547  33.5210 H              1 <1>                0.0000
     20 H20         32.0730  39.2435  34.2591 H              1 <1>                0.0000
     21 H21         33.4286  38.1552  33.8768 H              1 <1>                0.0000
     22 H22         30.8637  39.4733  37.0947 H              1 <1>                0.0000
     23 H23         30.7728  39.6030  35.3222 H              1 <1>                0.0000
     24 H24         28.5837  40.0813  36.5346 H              1 <1>                0.0000
     25 H25         28.4844  38.7873  35.3119 H              1 <1>                0.0000
     26 H26         24.8779  37.4217  39.1502 H              1 <1>                0.0000
     27 H27         30.9000  35.8545  37.1790 H              1 <1>                0.0000
     28 H28         31.4167  37.3069  38.0761 H              1 <1>                0.0000
@<TRIPOS>BOND
    1    1    2 1     
    2    1   15 1     
    3    1   16 1     
    4    1   17 1     
    5    2    3 1     
    6    2    4 1     
    7    2   18 1     
    8    3   19 1     
    9    3   20 1     
   10    3   21 1     
   11    4    5 1     
   12    4   14 1     
   13    5    6 1     
   14    5   22 1     
   15    5   23 1     
   16    6    7 1     
   17    6   24 1     
   18    6   25 1     
   19    7    8 1     
   20    7   13 2     
   21    8    9 2     
   22    9   10 1     
   23    9   12 1     
   24   10   11 2     
   25   10   26 1     
   26   12   13 1     
   27   13   14 1     
   28   14   27 1     
   29   14   28 1     
@<TRIPOS>SUBSTRUCTURE
      1 ****           1
@<TRIPOS>COMMENT
> <Gold.Version>
2022.2.0

> <Gold.Id.Protein>
1qkm|1qkm_protein|mol2

> <Gold.Protein.RotatedTorsions>
[  496  491  490  487 ] final -106.44 input  -89.99 | X-H torsion

> <Gold.Protein.ActiveResidues>
 MET295  LEU298  THR299  LEU301  ALA302  GLU305  TRP335  MET336  LEU339  MET340 
 GLY342  LEU343  ARG346  PHE356  ILE373  ILE376  PHE377  LEU380  LYS471  GLY472 
 MET473  HIS475  LEU476  LEU477  ASN478  MET479  VAL484  VAL487 

> <Gold.Protein.RotatedAtoms>
   36.9084   34.5135   40.9048 H   0  0  0  0  0  0  0  0  0  0  0  0  # atno 496  bound_to 491 

> <Gold.Score>
     Score     S(PLP)   S(hbond)     S(cho)   S(metal)  DE(clash)   DE(tors)     intcor
     42.74     -42.96       0.00       0.00       0.00       0.00       0.12       0.01

> <Gold.PLP.Fitness>
42.7413

> <Gold.PLP.PLP>
-42.9650

> <Gold.PLP.part.hbond>
0.0000

> <Gold.PLP.part.metal>
0.0000

> <Gold.PLP.part.buried>
-3.0019

> <Gold.PLP.part.nonpolar>
-40.3463

> <Gold.PLP.part.repulsive>
0.1669

> <Gold.PLP.ligand.clash>
0.0000

> <Gold.PLP.ligand.torsion>
0.1156

> <Gold.PLP.Chemscore.Hbond>
0.0000

> <Gold.PLP.Chemscore.CHOScore>
0.0000

> <Gold.PLP.Chemscore.Metal>
0.0000

> <Gold.PLP.Chemscore.Internal.Correction>
0.0076

