#       Name:                EN300-132481_i001
#       Creating user name   aseyller
#       Creation time:       Fri Apr 21 19:20:41 2023


#       File generated by GOLD software.
#

@<TRIPOS>MOLECULE
EN300-132481_i001|benzaldehydes|mol2|796|dock18
    28    29     1
SMALL
USER_CHARGES


@<TRIPOS>ATOM
      1 C1          27.9691  35.2048  40.9347 C.3            1 <1>                0.0000
      2 C2          28.3257  36.6910  41.0082 C.3            1 <1>                0.0000
      3 C3          29.2108  36.9431  42.2304 C.3            1 <1>                0.0000
      4 N4          29.0490  37.0818  39.7908 N.3            1 <1>                0.0000
      5 C5          28.1384  37.1619  38.6401 C.3            1 <1>                0.0000
      6 C6          28.8114  37.9407  37.5062 C.3            1 <1>                0.0000
      7 C7          30.1923  37.3396  37.2714 C.2            1 <1>                0.0000
      8 N8          30.9075  37.5409  36.1908 N.2            1 <1>                0.0000
      9 C9          32.0712  36.9537  36.1393 C.2            1 <1>                0.0000
     10 C10         33.0224  37.0458  35.0305 C.2            1 <1>                0.0000
     11 O11         32.6986  37.5937  33.9972 O.2            1 <1>                0.0000
     12 S12         32.3119  36.0332  37.6199 S.3            1 <1>                0.0000
     13 C13         30.7838  36.5346  38.1930 C.2            1 <1>                0.0000
     14 C14         30.1604  36.1569  39.5179 C.3            1 <1>                0.0000
     15 H15         28.8824  34.6159  40.8497 H              1 <1>                0.0000
     16 H16         27.4325  34.9148  41.8379 H              1 <1>                0.0000
     17 H17         27.3386  35.0251  40.0639 H              1 <1>                0.0000
     18 H18         27.4124  37.2799  41.0932 H              1 <1>                0.0000
     19 H19         30.1240  36.3542  42.1455 H              1 <1>                0.0000
     20 H20         29.4648  38.0018  42.2829 H              1 <1>                0.0000
     21 H21         28.6741  36.6531  43.1337 H              1 <1>                0.0000
     22 H22         27.8981  36.1557  38.2966 H              1 <1>                0.0000
     23 H23         27.2222  37.6722  38.9371 H              1 <1>                0.0000
     24 H24         28.2145  37.8575  36.5979 H              1 <1>                0.0000
     25 H25         28.9096  38.9891  37.7878 H              1 <1>                0.0000
     26 H26         34.0123  36.6262  35.1319 H              1 <1>                0.0000
     27 H27         30.9058  36.2360  40.3093 H              1 <1>                0.0000
     28 H28         29.7827  35.1357  39.4673 H              1 <1>                0.0000
@<TRIPOS>BOND
    1    1    2 1     
    2    1   15 1     
    3    1   16 1     
    4    1   17 1     
    5    2    3 1     
    6    2    4 1     
    7    2   18 1     
    8    3   19 1     
    9    3   20 1     
   10    3   21 1     
   11    4    5 1     
   12    4   14 1     
   13    5    6 1     
   14    5   22 1     
   15    5   23 1     
   16    6    7 1     
   17    6   24 1     
   18    6   25 1     
   19    7    8 1     
   20    7   13 2     
   21    8    9 2     
   22    9   10 1     
   23    9   12 1     
   24   10   11 2     
   25   10   26 1     
   26   12   13 1     
   27   13   14 1     
   28   14   27 1     
   29   14   28 1     
@<TRIPOS>SUBSTRUCTURE
      1 ****           1
@<TRIPOS>COMMENT
> <Gold.Version>
2022.2.0

> <Gold.Id.Protein>
1qkm|1qkm_protein|mol2

> <Gold.Protein.RotatedTorsions>
[  496  491  490  487 ] final   69.33 input  -89.99 | X-H torsion

> <Gold.Protein.ActiveResidues>
 MET295  LEU298  THR299  LEU301  ALA302  GLU305  TRP335  MET336  LEU339  MET340 
 GLY342  LEU343  ARG346  PHE356  ILE373  ILE376  PHE377  LEU380  LYS471  GLY472 
 MET473  HIS475  LEU476  LEU477  ASN478  MET479  VAL484  VAL487 

> <Gold.Protein.RotatedAtoms>
   36.6315   33.2072   42.2353 H   0  0  0  0  0  0  0  0  0  0  0  0  # atno 496  bound_to 491 

> <Gold.Score>
     Score     S(PLP)   S(hbond)     S(cho)   S(metal)  DE(clash)   DE(tors)     intcor
     41.44     -41.74       0.00       0.00       0.00       0.00       0.15       0.01

> <Gold.PLP.Fitness>
41.4397

> <Gold.PLP.PLP>
-41.7421

> <Gold.PLP.part.hbond>
0.0000

> <Gold.PLP.part.metal>
0.0000

> <Gold.PLP.part.buried>
-2.5044

> <Gold.PLP.part.nonpolar>
-39.5406

> <Gold.PLP.part.repulsive>
0.3057

> <Gold.PLP.ligand.clash>
0.0000

> <Gold.PLP.ligand.torsion>
0.1550

> <Gold.PLP.Chemscore.Hbond>
0.0000

> <Gold.PLP.Chemscore.CHOScore>
0.0000

> <Gold.PLP.Chemscore.Metal>
0.0000

> <Gold.PLP.Chemscore.Internal.Correction>
0.0076

