#       Name:                EN300-132481_i001
#       Creating user name   aseyller
#       Creation time:       Fri Apr 21 19:20:37 2023


#       File generated by GOLD software.
#

@<TRIPOS>MOLECULE
EN300-132481_i001|benzaldehydes|mol2|796|dock8
    28    29     1
SMALL
USER_CHARGES


@<TRIPOS>ATOM
      1 C1          25.8394  36.9906  39.0071 C.3            1 <1>                0.0000
      2 C2          27.0910  36.9302  39.8852 C.3            1 <1>                0.0000
      3 C3          26.9452  35.7977  40.9035 C.3            1 <1>                0.0000
      4 N4          28.2687  36.6828  39.0429 N.3            1 <1>                0.0000
      5 C5          29.4817  36.5447  39.8609 C.3            1 <1>                0.0000
      6 C6          30.5935  35.9028  39.0262 C.3            1 <1>                0.0000
      7 C7          30.7107  36.6749  37.7172 C.2            1 <1>                0.0000
      8 N8          31.7459  36.6084  36.9148 N.2            1 <1>                0.0000
      9 C9          31.6958  37.3325  35.8309 C.2            1 <1>                0.0000
     10 C10         32.7389  37.4039  34.8064 C.2            1 <1>                0.0000
     11 O11         33.7195  36.6938  34.8884 O.2            1 <1>                0.0000
     12 S12         30.1701  38.2093  35.8004 S.3            1 <1>                0.0000
     13 C13         29.7222  37.5036  37.2892 C.2            1 <1>                0.0000
     14 C14         28.4309  37.7453  38.0379 C.3            1 <1>                0.0000
     15 H15         25.7181  36.0431  38.4819 H              1 <1>                0.0000
     16 H16         24.9656  37.1742  39.6321 H              1 <1>                0.0000
     17 H17         25.9432  37.7974  38.2816 H              1 <1>                0.0000
     18 H18         27.2123  37.8776  40.4103 H              1 <1>                0.0000
     19 H19         26.8238  34.8502  40.3785 H              1 <1>                0.0000
     20 H20         27.8368  35.7546  41.5292 H              1 <1>                0.0000
     21 H21         26.0713  35.9813  41.5286 H              1 <1>                0.0000
     22 H22         29.8046  37.5290  40.2002 H              1 <1>                0.0000
     23 H23         29.2671  35.9157  40.7249 H              1 <1>                0.0000
     24 H24         31.5373  35.9537  39.5692 H              1 <1>                0.0000
     25 H25         30.3436  34.8624  38.8185 H              1 <1>                0.0000
     26 H26         32.6357  38.0885  33.9776 H              1 <1>                0.0000
     27 H27         27.5932  37.7214  37.3407 H              1 <1>                0.0000
     28 H28         28.4708  38.7150  38.5339 H              1 <1>                0.0000
@<TRIPOS>BOND
    1    1    2 1     
    2    1   15 1     
    3    1   16 1     
    4    1   17 1     
    5    2    3 1     
    6    2    4 1     
    7    2   18 1     
    8    3   19 1     
    9    3   20 1     
   10    3   21 1     
   11    4    5 1     
   12    4   14 1     
   13    5    6 1     
   14    5   22 1     
   15    5   23 1     
   16    6    7 1     
   17    6   24 1     
   18    6   25 1     
   19    7    8 1     
   20    7   13 2     
   21    8    9 2     
   22    9   10 1     
   23    9   12 1     
   24   10   11 2     
   25   10   26 1     
   26   12   13 1     
   27   13   14 1     
   28   14   27 1     
   29   14   28 1     
@<TRIPOS>SUBSTRUCTURE
      1 ****           1
@<TRIPOS>COMMENT
> <Gold.Version>
2022.2.0

> <Gold.Id.Protein>
1qkm|1qkm_protein|mol2

> <Gold.Protein.RotatedTorsions>
[  496  491  490  487 ] final -169.09 input  -89.99 | X-H torsion

> <Gold.Protein.ActiveResidues>
 MET295  LEU298  THR299  LEU301  ALA302  GLU305  TRP335  MET336  LEU339  MET340 
 GLY342  LEU343  ARG346  PHE356  ILE373  ILE376  PHE377  LEU380  LYS471  GLY472 
 MET473  HIS475  LEU476  LEU477  ASN478  MET479  VAL484  VAL487 

> <Gold.Protein.RotatedAtoms>
   37.3023   33.6229   40.7903 H   0  0  0  0  0  0  0  0  0  0  0  0  # atno 496  bound_to 491 

> <Gold.Score>
     Score     S(PLP)   S(hbond)     S(cho)   S(metal)  DE(clash)   DE(tors)     intcor
     43.63     -43.65       0.00       0.00       0.00       0.00       0.01       0.01

> <Gold.PLP.Fitness>
43.6335

> <Gold.PLP.PLP>
-43.6456

> <Gold.PLP.part.hbond>
0.0000

> <Gold.PLP.part.metal>
0.0000

> <Gold.PLP.part.buried>
-3.7871

> <Gold.PLP.part.nonpolar>
-39.5968

> <Gold.PLP.part.repulsive>
0.1679

> <Gold.PLP.ligand.clash>
0.0000

> <Gold.PLP.ligand.torsion>
0.0099

> <Gold.PLP.Chemscore.Hbond>
0.0000

> <Gold.PLP.Chemscore.CHOScore>
0.0000

> <Gold.PLP.Chemscore.Metal>
0.0000

> <Gold.PLP.Chemscore.Internal.Correction>
0.0076

