#       Name:                EN300-132481_i001
#       Creating user name   aseyller
#       Creation time:       Fri Apr 21 19:20:37 2023


#       File generated by GOLD software.
#

@<TRIPOS>MOLECULE
EN300-132481_i001|benzaldehydes|mol2|796|dock7
    28    29     1
SMALL
USER_CHARGES


@<TRIPOS>ATOM
      1 C1          31.3668  38.3018  35.4420 C.3            1 <1>                0.0000
      2 C2          31.4361  36.9390  36.1342 C.3            1 <1>                0.0000
      3 C3          32.8770  36.6589  36.5656 C.3            1 <1>                0.0000
      4 N4          30.5635  36.9450  37.3158 N.3            1 <1>                0.0000
      5 C5          30.7020  35.6969  38.0792 C.3            1 <1>                0.0000
      6 C6          30.1114  35.8835  39.4797 C.3            1 <1>                0.0000
      7 C7          28.7109  36.4665  39.3308 C.2            1 <1>                0.0000
      8 N8          27.8072  36.4599  40.2811 N.2            1 <1>                0.0000
      9 C9          26.6530  36.9973  39.9971 C.2            1 <1>                0.0000
     10 C10         25.5121  37.0942  40.9090 C.2            1 <1>                0.0000
     11 O11         25.6955  37.3032  42.0903 O.2            1 <1>                0.0000
     12 S12         26.6907  37.5875  38.3394 S.3            1 <1>                0.0000
     13 C13         28.3006  37.0447  38.1713 C.2            1 <1>                0.0000
     14 C14         29.1610  37.1748  36.9345 C.3            1 <1>                0.0000
     15 H15         31.6965  39.0774  36.1333 H              1 <1>                0.0000
     16 H16         32.0143  38.2974  34.5652 H              1 <1>                0.0000
     17 H17         30.3403  38.5014  35.1346 H              1 <1>                0.0000
     18 H18         31.1065  36.1633  35.4429 H              1 <1>                0.0000
     19 H19         33.2067  37.4345  37.2568 H              1 <1>                0.0000
     20 H20         32.9264  35.6880  37.0586 H              1 <1>                0.0000
     21 H21         33.5245  36.6544  35.6888 H              1 <1>                0.0000
     22 H22         30.1707  34.8960  37.5648 H              1 <1>                0.0000
     23 H23         31.7574  35.4372  38.1619 H              1 <1>                0.0000
     24 H24         30.0570  34.9204  39.9873 H              1 <1>                0.0000
     25 H25         30.7357  36.5679  40.0540 H              1 <1>                0.0000
     26 H26         24.5071  36.9796  40.5307 H              1 <1>                0.0000
     27 H27         29.0539  38.1762  36.5174 H              1 <1>                0.0000
     28 H28         28.8562  36.4329  36.1964 H              1 <1>                0.0000
@<TRIPOS>BOND
    1    1    2 1     
    2    1   15 1     
    3    1   16 1     
    4    1   17 1     
    5    2    3 1     
    6    2    4 1     
    7    2   18 1     
    8    3   19 1     
    9    3   20 1     
   10    3   21 1     
   11    4    5 1     
   12    4   14 1     
   13    5    6 1     
   14    5   22 1     
   15    5   23 1     
   16    6    7 1     
   17    6   24 1     
   18    6   25 1     
   19    7    8 1     
   20    7   13 2     
   21    8    9 2     
   22    9   10 1     
   23    9   12 1     
   24   10   11 2     
   25   10   26 1     
   26   12   13 1     
   27   13   14 1     
   28   14   27 1     
   29   14   28 1     
@<TRIPOS>SUBSTRUCTURE
      1 ****           1
@<TRIPOS>COMMENT
> <Gold.Version>
2022.2.0

> <Gold.Id.Protein>
1qkm|1qkm_protein|mol2

> <Gold.Protein.RotatedTorsions>
[  496  491  490  487 ] final  -98.54 input  -89.99 | X-H torsion

> <Gold.Protein.ActiveResidues>
 MET295  LEU298  THR299  LEU301  ALA302  GLU305  TRP335  MET336  LEU339  MET340 
 GLY342  LEU343  ARG346  PHE356  ILE373  ILE376  PHE377  LEU380  LYS471  GLY472 
 MET473  HIS475  LEU476  LEU477  ASN478  MET479  VAL484  VAL487 

> <Gold.Protein.RotatedAtoms>
   36.8363   34.5884   40.9828 H   0  0  0  0  0  0  0  0  0  0  0  0  # atno 496  bound_to 491 

> <Gold.Score>
     Score     S(PLP)   S(hbond)     S(cho)   S(metal)  DE(clash)   DE(tors)     intcor
     42.32     -42.79       0.03       0.00       0.00       0.00       0.28       0.01

> <Gold.PLP.Fitness>
42.3202

> <Gold.PLP.PLP>
-42.7919

> <Gold.PLP.part.hbond>
-1.0000

> <Gold.PLP.part.metal>
0.0000

> <Gold.PLP.part.buried>
-3.6275

> <Gold.PLP.part.nonpolar>
-38.9572

> <Gold.PLP.part.repulsive>
0.2967

> <Gold.PLP.ligand.clash>
0.0000

> <Gold.PLP.ligand.torsion>
0.2833

> <Gold.PLP.Chemscore.Hbond>
0.0291

> <Gold.PLP.Chemscore.CHOScore>
0.0000

> <Gold.PLP.Chemscore.Metal>
0.0000

> <Gold.Chemscore.Hbonds>
donor molecule, donor type, donor heavy atom, donor atom, acceptor molecule, acceptor atom, score
      P1  H  1258  1270       L1    11  0.03

> <Gold.PLP.Chemscore.Internal.Correction>
0.0076

