#       Name:                EN300-132481_i001
#       Creating user name   aseyller
#       Creation time:       Fri Apr 21 19:20:42 2023


#       File generated by GOLD software.
#

@<TRIPOS>MOLECULE
EN300-132481_i001|benzaldehydes|mol2|796|dock19
    28    29     1
SMALL
USER_CHARGES


@<TRIPOS>ATOM
      1 C1          32.1055  38.2213  34.0000 C.3            1 <1>                0.0000
      2 C2          32.2041  36.9102  34.7826 C.3            1 <1>                0.0000
      3 C3          33.6373  36.7223  35.2840 C.3            1 <1>                0.0000
      4 N4          31.2861  36.9538  35.9286 N.3            1 <1>                0.0000
      5 C5          31.4207  38.2194  36.6634 C.3            1 <1>                0.0000
      6 C6          30.2099  38.4115  37.5810 C.3            1 <1>                0.0000
      7 C7          30.0266  37.1382  38.3986 C.2            1 <1>                0.0000
      8 N8          29.3022  37.0628  39.4891 N.2            1 <1>                0.0000
      9 C9          29.2458  35.8998  40.0771 C.2            1 <1>                0.0000
     10 C10         28.4980  35.5995  41.2991 C.2            1 <1>                0.0000
     11 O11         27.7490  36.4293  41.7714 O.2            1 <1>                0.0000
     12 S12         30.2148  34.7502  39.1621 S.3            1 <1>                0.0000
     13 C13         30.6201  35.9698  38.0381 C.2            1 <1>                0.0000
     14 C14         31.5007  35.8031  36.8203 C.3            1 <1>                0.0000
     15 H15         32.3750  39.0536  34.6502 H              1 <1>                0.0000
     16 H16         32.7866  38.1890  33.1497 H              1 <1>                0.0000
     17 H17         31.0844  38.3553  33.6427 H              1 <1>                0.0000
     18 H18         31.9345  36.0779  34.1324 H              1 <1>                0.0000
     19 H19         33.9069  37.5546  35.9342 H              1 <1>                0.0000
     20 H20         33.7076  35.7882  35.8415 H              1 <1>                0.0000
     21 H21         34.3185  36.6900  34.4337 H              1 <1>                0.0000
     22 H22         32.3306  38.1958  37.2632 H              1 <1>                0.0000
     23 H23         31.4745  39.0463  35.9552 H              1 <1>                0.0000
     24 H24         30.3843  39.2555  38.2484 H              1 <1>                0.0000
     25 H25         29.3187  38.5946  36.9806 H              1 <1>                0.0000
     26 H26         28.6129  34.6396  41.7803 H              1 <1>                0.0000
     27 H27         31.2365  34.8822  36.3003 H              1 <1>                0.0000
     28 H28         32.5463  35.7674  37.1263 H              1 <1>                0.0000
@<TRIPOS>BOND
    1    1    2 1     
    2    1   15 1     
    3    1   16 1     
    4    1   17 1     
    5    2    3 1     
    6    2    4 1     
    7    2   18 1     
    8    3   19 1     
    9    3   20 1     
   10    3   21 1     
   11    4    5 1     
   12    4   14 1     
   13    5    6 1     
   14    5   22 1     
   15    5   23 1     
   16    6    7 1     
   17    6   24 1     
   18    6   25 1     
   19    7    8 1     
   20    7   13 2     
   21    8    9 2     
   22    9   10 1     
   23    9   12 1     
   24   10   11 2     
   25   10   26 1     
   26   12   13 1     
   27   13   14 1     
   28   14   27 1     
   29   14   28 1     
@<TRIPOS>SUBSTRUCTURE
      1 ****           1
@<TRIPOS>COMMENT
> <Gold.Version>
2022.2.0

> <Gold.Id.Protein>
1qkm|1qkm_protein|mol2

> <Gold.Protein.RotatedTorsions>
[  496  491  490  487 ] final   97.66 input  -89.99 | X-H torsion

> <Gold.Protein.ActiveResidues>
 MET295  LEU298  THR299  LEU301  ALA302  GLU305  TRP335  MET336  LEU339  MET340 
 GLY342  LEU343  ARG346  PHE356  ILE373  ILE376  PHE377  LEU380  LYS471  GLY472 
 MET473  HIS475  LEU476  LEU477  ASN478  MET479  VAL484  VAL487 

> <Gold.Protein.RotatedAtoms>
   36.8905   32.9791   41.9287 H   0  0  0  0  0  0  0  0  0  0  0  0  # atno 496  bound_to 491 

> <Gold.Score>
     Score     S(PLP)   S(hbond)     S(cho)   S(metal)  DE(clash)   DE(tors)     intcor
     41.50     -41.76       0.00       0.00       0.00       0.00       0.13       0.01

> <Gold.PLP.Fitness>
41.5022

> <Gold.PLP.PLP>
-41.7568

> <Gold.PLP.part.hbond>
0.0000

> <Gold.PLP.part.metal>
0.0000

> <Gold.PLP.part.buried>
-4.5036

> <Gold.PLP.part.nonpolar>
-38.3761

> <Gold.PLP.part.repulsive>
0.2090

> <Gold.PLP.ligand.clash>
0.0000

> <Gold.PLP.ligand.torsion>
0.1311

> <Gold.PLP.Chemscore.Hbond>
0.0000

> <Gold.PLP.Chemscore.CHOScore>
0.0000

> <Gold.PLP.Chemscore.Metal>
0.0000

> <Gold.PLP.Chemscore.Internal.Correction>
0.0076

