#       Name:                EN300-132481_i001
#       Creating user name   aseyller
#       Creation time:       Fri Apr 21 19:20:35 2023


#       File generated by GOLD software.
#

@<TRIPOS>MOLECULE
EN300-132481_i001|benzaldehydes|mol2|796|dock4
    28    29     1
SMALL
USER_CHARGES


@<TRIPOS>ATOM
      1 C1          28.4781  36.1664  42.0983 C.3            1 <1>                0.0000
      2 C2          27.5076  36.0902  40.9178 C.3            1 <1>                0.0000
      3 C3          26.1824  36.7500  41.3039 C.3            1 <1>                0.0000
      4 N4          28.0853  36.7906  39.7631 N.3            1 <1>                0.0000
      5 C5          27.1591  36.7780  38.6222 C.3            1 <1>                0.0000
      6 C6          27.5936  37.8289  37.5965 C.3            1 <1>                0.0000
      7 C7          29.0751  37.6225  37.3035 C.2            1 <1>                0.0000
      8 N8          29.6949  38.1225  36.2616 N.2            1 <1>                0.0000
      9 C9          30.9665  37.8537  36.1502 C.2            1 <1>                0.0000
     10 C10         31.8413  38.3107  35.0693 C.2            1 <1>                0.0000
     11 O11         32.8904  37.7395  34.8551 O.2            1 <1>                0.0000
     12 S12         31.4594  36.8526  37.5113 S.3            1 <1>                0.0000
     13 C13         29.8673  36.8863  38.1267 C.2            1 <1>                0.0000
     14 C14         29.3854  36.2106  39.3908 C.3            1 <1>                0.0000
     15 H15         28.6539  37.2105  42.3572 H              1 <1>                0.0000
     16 H16         28.0496  35.6467  42.9552 H              1 <1>                0.0000
     17 H17         29.4224  35.6963  41.8233 H              1 <1>                0.0000
     18 H18         27.3318  35.0461  40.6589 H              1 <1>                0.0000
     19 H19         26.3581  37.7942  41.5629 H              1 <1>                0.0000
     20 H20         25.4909  36.6957  40.4630 H              1 <1>                0.0000
     21 H21         25.7537  36.2303  42.1608 H              1 <1>                0.0000
     22 H22         27.1686  35.7918  38.1578 H              1 <1>                0.0000
     23 H23         26.1514  37.0052  38.9702 H              1 <1>                0.0000
     24 H24         27.0169  37.7084  36.6795 H              1 <1>                0.0000
     25 H25         27.4347  38.8276  38.0033 H              1 <1>                0.0000
     26 H26         31.5532  39.1563  34.4624 H              1 <1>                0.0000
     27 H27         30.1045  36.3779  40.1927 H              1 <1>                0.0000
     28 H28         29.2717  35.1410  39.2141 H              1 <1>                0.0000
@<TRIPOS>BOND
    1    1    2 1     
    2    1   15 1     
    3    1   16 1     
    4    1   17 1     
    5    2    3 1     
    6    2    4 1     
    7    2   18 1     
    8    3   19 1     
    9    3   20 1     
   10    3   21 1     
   11    4    5 1     
   12    4   14 1     
   13    5    6 1     
   14    5   22 1     
   15    5   23 1     
   16    6    7 1     
   17    6   24 1     
   18    6   25 1     
   19    7    8 1     
   20    7   13 2     
   21    8    9 2     
   22    9   10 1     
   23    9   12 1     
   24   10   11 2     
   25   10   26 1     
   26   12   13 1     
   27   13   14 1     
   28   14   27 1     
   29   14   28 1     
@<TRIPOS>SUBSTRUCTURE
      1 ****           1
@<TRIPOS>COMMENT
> <Gold.Version>
2022.2.0

> <Gold.Id.Protein>
1qkm|1qkm_protein|mol2

> <Gold.Protein.RotatedTorsions>
[  496  491  490  487 ] final  -23.40 input  -89.99 | X-H torsion

> <Gold.Protein.ActiveResidues>
 MET295  LEU298  THR299  LEU301  ALA302  GLU305  TRP335  MET336  LEU339  MET340 
 GLY342  LEU343  ARG346  PHE356  ILE373  ILE376  PHE377  LEU380  LYS471  GLY472 
 MET473  HIS475  LEU476  LEU477  ASN478  MET479  VAL484  VAL487 

> <Gold.Protein.RotatedAtoms>
   36.2907   34.5066   41.9922 H   0  0  0  0  0  0  0  0  0  0  0  0  # atno 496  bound_to 491 

> <Gold.Score>
     Score     S(PLP)   S(hbond)     S(cho)   S(metal)  DE(clash)   DE(tors)     intcor
     45.39     -45.55       0.00       0.00       0.00       0.00       0.09       0.01

> <Gold.PLP.Fitness>
45.3852

> <Gold.PLP.PLP>
-45.5523

> <Gold.PLP.part.hbond>
0.0000

> <Gold.PLP.part.metal>
0.0000

> <Gold.PLP.part.buried>
-4.0841

> <Gold.PLP.part.nonpolar>
-41.9165

> <Gold.PLP.part.repulsive>
0.1519

> <Gold.PLP.ligand.clash>
0.0000

> <Gold.PLP.ligand.torsion>
0.0873

> <Gold.PLP.Chemscore.Hbond>
0.0000

> <Gold.PLP.Chemscore.CHOScore>
0.0000

> <Gold.PLP.Chemscore.Metal>
0.0000

> <Gold.PLP.Chemscore.Internal.Correction>
0.0076

