#       Name:                EN300-132481_i001
#       Creating user name   aseyller
#       Creation time:       Fri Apr 21 19:20:40 2023


#       File generated by GOLD software.
#

@<TRIPOS>MOLECULE
EN300-132481_i001|benzaldehydes|mol2|796|dock15
    28    29     1
SMALL
USER_CHARGES


@<TRIPOS>ATOM
      1 C1          28.4806  36.6376  41.6356 C.3            1 <1>                0.0000
      2 C2          27.8194  35.9655  40.4305 C.3            1 <1>                0.0000
      3 C3          26.5992  36.7808  39.9978 C.3            1 <1>                0.0000
      4 N4          28.7797  35.8950  39.3212 N.3            1 <1>                0.0000
      5 C5          29.9689  35.1204  39.7025 C.3            1 <1>                0.0000
      6 C6          30.7488  34.7249  38.4453 C.3            1 <1>                0.0000
      7 C7          30.9642  35.9788  37.6059 C.2            1 <1>                0.0000
      8 N8          31.8476  36.0749  36.6415 N.2            1 <1>                0.0000
      9 C9          31.9119  37.2179  36.0161 C.2            1 <1>                0.0000
     10 C10         32.8226  37.5352  34.9149 C.2            1 <1>                0.0000
     11 O11         33.6095  36.7008  34.5187 O.2            1 <1>                0.0000
     12 S12         30.7253  38.3162  36.7113 S.3            1 <1>                0.0000
     13 C13         30.2339  37.1065  37.8113 C.2            1 <1>                0.0000
     14 C14         29.1549  37.2417  38.8620 C.3            1 <1>                0.0000
     15 H15         28.7950  37.6449  41.3624 H              1 <1>                0.0000
     16 H16         27.7681  36.6899  42.4587 H              1 <1>                0.0000
     17 H17         29.3499  36.0568  41.9439 H              1 <1>                0.0000
     18 H18         27.5050  34.9581  40.7036 H              1 <1>                0.0000
     19 H19         26.9135  37.7882  39.7247 H              1 <1>                0.0000
     20 H20         26.1281  36.3020  39.1394 H              1 <1>                0.0000
     21 H21         25.8866  36.8332  40.8210 H              1 <1>                0.0000
     22 H22         30.6046  35.7258  40.3486 H              1 <1>                0.0000
     23 H23         29.6607  34.2214  40.2363 H              1 <1>                0.0000
     24 H24         31.7126  34.3015  38.7283 H              1 <1>                0.0000
     25 H25         30.1784  33.9929  37.8736 H              1 <1>                0.0000
     26 H26         32.7941  38.5120  34.4551 H              1 <1>                0.0000
     27 H27         28.2848  37.7379  38.4319 H              1 <1>                0.0000
     28 H28         29.5331  37.8228  39.7030 H              1 <1>                0.0000
@<TRIPOS>BOND
    1    1    2 1     
    2    1   15 1     
    3    1   16 1     
    4    1   17 1     
    5    2    3 1     
    6    2    4 1     
    7    2   18 1     
    8    3   19 1     
    9    3   20 1     
   10    3   21 1     
   11    4    5 1     
   12    4   14 1     
   13    5    6 1     
   14    5   22 1     
   15    5   23 1     
   16    6    7 1     
   17    6   24 1     
   18    6   25 1     
   19    7    8 1     
   20    7   13 2     
   21    8    9 2     
   22    9   10 1     
   23    9   12 1     
   24   10   11 2     
   25   10   26 1     
   26   12   13 1     
   27   13   14 1     
   28   14   27 1     
   29   14   28 1     
@<TRIPOS>SUBSTRUCTURE
      1 ****           1
@<TRIPOS>COMMENT
> <Gold.Version>
2022.2.0

> <Gold.Id.Protein>
1qkm|1qkm_protein|mol2

> <Gold.Protein.RotatedTorsions>
[  496  491  490  487 ] final  -86.03 input  -89.99 | X-H torsion

> <Gold.Protein.ActiveResidues>
 MET295  LEU298  THR299  LEU301  ALA302  GLU305  TRP335  MET336  LEU339  MET340 
 GLY342  LEU343  ARG346  PHE356  ILE373  ILE376  PHE377  LEU380  LYS471  GLY472 
 MET473  HIS475  LEU476  LEU477  ASN478  MET479  VAL484  VAL487 

> <Gold.Protein.RotatedAtoms>
   36.7208   34.6774   41.1277 H   0  0  0  0  0  0  0  0  0  0  0  0  # atno 496  bound_to 491 

> <Gold.Score>
     Score     S(PLP)   S(hbond)     S(cho)   S(metal)  DE(clash)   DE(tors)     intcor
     41.07     -41.08       0.00       0.00       0.00       0.00       0.01       0.01

> <Gold.PLP.Fitness>
41.0747

> <Gold.PLP.PLP>
-41.0832

> <Gold.PLP.part.hbond>
0.0000

> <Gold.PLP.part.metal>
0.0000

> <Gold.PLP.part.buried>
-3.1108

> <Gold.PLP.part.nonpolar>
-38.4298

> <Gold.PLP.part.repulsive>
0.4965

> <Gold.PLP.ligand.clash>
0.0000

> <Gold.PLP.ligand.torsion>
0.0081

> <Gold.PLP.Chemscore.Hbond>
0.0000

> <Gold.PLP.Chemscore.CHOScore>
0.0000

> <Gold.PLP.Chemscore.Metal>
0.0000

> <Gold.PLP.Chemscore.Internal.Correction>
0.0076

