#       Name:                EN300-132481_i001
#       Creating user name   aseyller
#       Creation time:       Fri Apr 21 19:20:36 2023


#       File generated by GOLD software.
#

@<TRIPOS>MOLECULE
EN300-132481_i001|benzaldehydes|mol2|796|dock5
    28    29     1
SMALL
USER_CHARGES


@<TRIPOS>ATOM
      1 C1          33.0007  36.4212  35.3016 C.3            1 <1>                0.0000
      2 C2          32.3264  37.7602  35.6078 C.3            1 <1>                0.0000
      3 C3          32.0188  38.4877  34.2975 C.3            1 <1>                0.0000
      4 N4          31.0760  37.5224  36.3411 N.3            1 <1>                0.0000
      5 C5          30.3788  38.7863  36.6172 C.3            1 <1>                0.0000
      6 C6          28.9270  38.4968  37.0088 C.3            1 <1>                0.0000
      7 C7          28.9330  37.4409  38.1080 C.2            1 <1>                0.0000
      8 N8          27.9108  37.1877  38.8896 N.2            1 <1>                0.0000
      9 C9          28.0740  36.2534  39.7852 C.2            1 <1>                0.0000
     10 C10         27.0657  35.8162  40.7521 C.2            1 <1>                0.0000
     11 O11         25.9906  36.3767  40.8030 O.2            1 <1>                0.0000
     12 S12         29.7034  35.6037  39.6417 S.3            1 <1>                0.0000
     13 C13         30.0291  36.6757  38.3534 C.2            1 <1>                0.0000
     14 C14         31.3277  36.7785  37.5855 C.3            1 <1>                0.0000
     15 H15         32.3338  35.8093  34.6941 H              1 <1>                0.0000
     16 H16         33.9285  36.5977  34.7575 H              1 <1>                0.0000
     17 H17         33.2198  35.9029  36.2351 H              1 <1>                0.0000
     18 H18         32.9933  38.3721  36.2153 H              1 <1>                0.0000
     19 H19         31.3521  37.8757  33.6900 H              1 <1>                0.0000
     20 H20         31.5386  39.4416  34.5156 H              1 <1>                0.0000
     21 H21         32.9467  38.6641  33.7533 H              1 <1>                0.0000
     22 H22         30.8788  39.3055  37.4349 H              1 <1>                0.0000
     23 H23         30.3963  39.4127  35.7253 H              1 <1>                0.0000
     24 H24         28.4564  39.4085  37.3769 H              1 <1>                0.0000
     25 H25         28.3799  38.1235  36.1431 H              1 <1>                0.0000
     26 H26         27.2786  34.9948  41.4201 H              1 <1>                0.0000
     27 H27         31.6930  35.7794  37.3478 H              1 <1>                0.0000
     28 H28         32.0672  37.3088  38.1856 H              1 <1>                0.0000
@<TRIPOS>BOND
    1    1    2 1     
    2    1   15 1     
    3    1   16 1     
    4    1   17 1     
    5    2    3 1     
    6    2    4 1     
    7    2   18 1     
    8    3   19 1     
    9    3   20 1     
   10    3   21 1     
   11    4    5 1     
   12    4   14 1     
   13    5    6 1     
   14    5   22 1     
   15    5   23 1     
   16    6    7 1     
   17    6   24 1     
   18    6   25 1     
   19    7    8 1     
   20    7   13 2     
   21    8    9 2     
   22    9   10 1     
   23    9   12 1     
   24   10   11 2     
   25   10   26 1     
   26   12   13 1     
   27   13   14 1     
   28   14   27 1     
   29   14   28 1     
@<TRIPOS>SUBSTRUCTURE
      1 ****           1
@<TRIPOS>COMMENT
> <Gold.Version>
2022.2.0

> <Gold.Id.Protein>
1qkm|1qkm_protein|mol2

> <Gold.Protein.RotatedTorsions>
[  496  491  490  487 ] final  174.79 input  -89.99 | X-H torsion

> <Gold.Protein.ActiveResidues>
 MET295  LEU298  THR299  LEU301  ALA302  GLU305  TRP335  MET336  LEU339  MET340 
 GLY342  LEU343  ARG346  PHE356  ILE373  ILE376  PHE377  LEU380  LYS471  GLY472 
 MET473  HIS475  LEU476  LEU477  ASN478  MET479  VAL484  VAL487 

> <Gold.Protein.RotatedAtoms>
   37.3185   33.3891   40.9131 H   0  0  0  0  0  0  0  0  0  0  0  0  # atno 496  bound_to 491 

> <Gold.Score>
     Score     S(PLP)   S(hbond)     S(cho)   S(metal)  DE(clash)   DE(tors)     intcor
     43.06     -43.06       0.00       0.00       0.00       0.00       0.01       0.01

> <Gold.PLP.Fitness>
43.0577

> <Gold.PLP.PLP>
-43.0631

> <Gold.PLP.part.hbond>
0.0000

> <Gold.PLP.part.metal>
0.0000

> <Gold.PLP.part.buried>
-2.9202

> <Gold.PLP.part.nonpolar>
-40.2464

> <Gold.PLP.part.repulsive>
0.1673

> <Gold.PLP.ligand.clash>
0.0000

> <Gold.PLP.ligand.torsion>
0.0065

> <Gold.PLP.Chemscore.Hbond>
0.0000

> <Gold.PLP.Chemscore.CHOScore>
0.0000

> <Gold.PLP.Chemscore.Metal>
0.0000

> <Gold.PLP.Chemscore.Internal.Correction>
0.0076

