#       Name:                EN300-132481_i001
#       Creating user name   aseyller
#       Creation time:       Fri Apr 21 19:20:41 2023


#       File generated by GOLD software.
#

@<TRIPOS>MOLECULE
EN300-132481_i001|benzaldehydes|mol2|796|dock16
    28    29     1
SMALL
USER_CHARGES


@<TRIPOS>ATOM
      1 C1          32.7993  35.7624  38.3652 C.3            1 <1>                0.0000
      2 C2          31.7582  34.8266  37.7478 C.3            1 <1>                0.0000
      3 C3          31.8872  33.4364  38.3735 C.3            1 <1>                0.0000
      4 N4          30.4117  35.3555  38.0032 N.3            1 <1>                0.0000
      5 C5          30.3352  36.7845  37.6691 C.3            1 <1>                0.0000
      6 C6          28.8676  37.2078  37.5581 C.3            1 <1>                0.0000
      7 C7          28.1415  36.7378  38.8132 C.2            1 <1>                0.0000
      8 N8          26.9733  37.1913  39.1998 N.2            1 <1>                0.0000
      9 C9          26.4835  36.6893  40.2996 C.2            1 <1>                0.0000
     10 C10         25.2011  37.0538  40.9041 C.2            1 <1>                0.0000
     11 O11         25.1324  37.2722  42.0958 O.2            1 <1>                0.0000
     12 S12         27.6149  35.5020  40.9383 S.3            1 <1>                0.0000
     13 C13         28.6752  35.7938  39.6324 C.2            1 <1>                0.0000
     14 C14         30.0085  35.1197  39.3985 C.3            1 <1>                0.0000
     15 H15         32.6338  35.8311  39.4404 H              1 <1>                0.0000
     16 H16         33.7984  35.3700  38.1757 H              1 <1>                0.0000
     17 H17         32.7074  36.7529  37.9195 H              1 <1>                0.0000
     18 H18         31.9237  34.7579  36.6726 H              1 <1>                0.0000
     19 H19         31.7217  33.5050  39.4487 H              1 <1>                0.0000
     20 H20         31.1456  32.7697  37.9336 H              1 <1>                0.0000
     21 H21         32.8864  33.0440  38.1840 H              1 <1>                0.0000
     22 H22         30.8228  37.3667  38.4511 H              1 <1>                0.0000
     23 H23         30.8372  36.9624  36.7181 H              1 <1>                0.0000
     24 H24         28.8027  38.2931  37.4801 H              1 <1>                0.0000
     25 H25         28.4175  36.7476  36.6786 H              1 <1>                0.0000
     26 H26         24.3163  37.1284  40.2896 H              1 <1>                0.0000
     27 H27         29.9136  34.0485  39.5767 H              1 <1>                0.0000
     28 H28         30.7552  35.5412  40.0714 H              1 <1>                0.0000
@<TRIPOS>BOND
    1    1    2 1     
    2    1   15 1     
    3    1   16 1     
    4    1   17 1     
    5    2    3 1     
    6    2    4 1     
    7    2   18 1     
    8    3   19 1     
    9    3   20 1     
   10    3   21 1     
   11    4    5 1     
   12    4   14 1     
   13    5    6 1     
   14    5   22 1     
   15    5   23 1     
   16    6    7 1     
   17    6   24 1     
   18    6   25 1     
   19    7    8 1     
   20    7   13 2     
   21    8    9 2     
   22    9   10 1     
   23    9   12 1     
   24   10   11 2     
   25   10   26 1     
   26   12   13 1     
   27   13   14 1     
   28   14   27 1     
   29   14   28 1     
@<TRIPOS>SUBSTRUCTURE
      1 ****           1
@<TRIPOS>COMMENT
> <Gold.Version>
2022.2.0

> <Gold.Id.Protein>
1qkm|1qkm_protein|mol2

> <Gold.Protein.RotatedTorsions>
[  496  491  490  487 ] final   75.08 input  -89.99 | X-H torsion

> <Gold.Protein.ActiveResidues>
 MET295  LEU298  THR299  LEU301  ALA302  GLU305  TRP335  MET336  LEU339  MET340 
 GLY342  LEU343  ARG346  PHE356  ILE373  ILE376  PHE377  LEU380  LYS471  GLY472 
 MET473  HIS475  LEU476  LEU477  ASN478  MET479  VAL484  VAL487 

> <Gold.Protein.RotatedAtoms>
   36.6829   33.1463   42.1845 H   0  0  0  0  0  0  0  0  0  0  0  0  # atno 496  bound_to 491 

> <Gold.Score>
     Score     S(PLP)   S(hbond)     S(cho)   S(metal)  DE(clash)   DE(tors)     intcor
     42.65     -44.20       0.19       0.00       0.00       0.98       0.58       0.01

> <Gold.PLP.Fitness>
42.6519

> <Gold.PLP.PLP>
-44.2030

> <Gold.PLP.part.hbond>
-0.4175

> <Gold.PLP.part.metal>
0.0000

> <Gold.PLP.part.buried>
-2.9659

> <Gold.PLP.part.nonpolar>
-41.6415

> <Gold.PLP.part.repulsive>
0.3261

> <Gold.PLP.ligand.clash>
0.9820

> <Gold.PLP.ligand.torsion>
0.5764

> <Gold.PLP.Chemscore.Hbond>
0.1920

> <Gold.PLP.Chemscore.CHOScore>
0.0000

> <Gold.PLP.Chemscore.Metal>
0.0000

> <Gold.Chemscore.Hbonds>
donor molecule, donor type, donor heavy atom, donor atom, acceptor molecule, acceptor atom, score
      P1  H  1258  1270       L1    11  0.19

> <Gold.PLP.Chemscore.Internal.Correction>
0.0076

