#       Name:                EN300-132481_i001
#       Creating user name   aseyller
#       Creation time:       Fri Apr 21 19:20:37 2023


#       File generated by GOLD software.
#

@<TRIPOS>MOLECULE
EN300-132481_i001|benzaldehydes|mol2|796|dock9
    28    29     1
SMALL
USER_CHARGES


@<TRIPOS>ATOM
      1 C1          26.8770  36.5352  41.5725 C.3            1 <1>                0.0000
      2 C2          26.6067  36.5087  40.0668 C.3            1 <1>                0.0000
      3 C3          25.6051  37.6085  39.7090 C.3            1 <1>                0.0000
      4 N4          27.8629  36.7351  39.3398 N.3            1 <1>                0.0000
      5 C5          27.6094  36.9746  37.9122 C.3            1 <1>                0.0000
      6 C6          28.8530  37.5925  37.2666 C.3            1 <1>                0.0000
      7 C7          30.0562  36.7317  37.6337 C.2            1 <1>                0.0000
      8 N8          31.2090  36.7756  37.0102 N.2            1 <1>                0.0000
      9 C9          32.1417  35.9732  37.4436 C.2            1 <1>                0.0000
     10 C10         33.4935  35.8638  36.8929 C.2            1 <1>                0.0000
     11 O11         33.6953  36.1210  35.7242 O.2            1 <1>                0.0000
     12 S12         31.5106  35.0438  38.7984 S.3            1 <1>                0.0000
     13 C13         30.0068  35.8399  38.6581 C.2            1 <1>                0.0000
     14 C14         28.7909  35.6085  39.5268 C.3            1 <1>                0.0000
     15 H15         27.2881  37.5056  41.8508 H              1 <1>                0.0000
     16 H16         25.9449  36.3672  42.1120 H              1 <1>                0.0000
     17 H17         27.5906  35.7516  41.8274 H              1 <1>                0.0000
     18 H18         26.1956  35.5383  39.7885 H              1 <1>                0.0000
     19 H19         26.0161  38.5790  39.9873 H              1 <1>                0.0000
     20 H20         25.4125  37.5897  38.6363 H              1 <1>                0.0000
     21 H21         24.6729  37.4406  40.2485 H              1 <1>                0.0000
     22 H22         27.3770  36.0296  37.4212 H              1 <1>                0.0000
     23 H23         26.7665  37.6570  37.8027 H              1 <1>                0.0000
     24 H24         28.7329  37.6142  36.1834 H              1 <1>                0.0000
     25 H25         28.9974  38.6056  37.6417 H              1 <1>                0.0000
     26 H26         34.3113  35.5542  37.5266 H              1 <1>                0.0000
     27 H27         29.0931  35.5523  40.5726 H              1 <1>                0.0000
     28 H28         28.3023  34.6794  39.2333 H              1 <1>                0.0000
@<TRIPOS>BOND
    1    1    2 1     
    2    1   15 1     
    3    1   16 1     
    4    1   17 1     
    5    2    3 1     
    6    2    4 1     
    7    2   18 1     
    8    3   19 1     
    9    3   20 1     
   10    3   21 1     
   11    4    5 1     
   12    4   14 1     
   13    5    6 1     
   14    5   22 1     
   15    5   23 1     
   16    6    7 1     
   17    6   24 1     
   18    6   25 1     
   19    7    8 1     
   20    7   13 2     
   21    8    9 2     
   22    9   10 1     
   23    9   12 1     
   24   10   11 2     
   25   10   26 1     
   26   12   13 1     
   27   13   14 1     
   28   14   27 1     
   29   14   28 1     
@<TRIPOS>SUBSTRUCTURE
      1 ****           1
@<TRIPOS>COMMENT
> <Gold.Version>
2022.2.0

> <Gold.Id.Protein>
1qkm|1qkm_protein|mol2

> <Gold.Protein.RotatedTorsions>
[  496  491  490  487 ] final   33.13 input  -89.99 | X-H torsion

> <Gold.Protein.ActiveResidues>
 MET295  LEU298  THR299  LEU301  ALA302  GLU305  TRP335  MET336  LEU339  MET340 
 GLY342  LEU343  ARG346  PHE356  ILE373  ILE376  PHE377  LEU380  LYS471  GLY472 
 MET473  HIS475  LEU476  LEU477  ASN478  MET479  VAL484  VAL487 

> <Gold.Protein.RotatedAtoms>
   36.3629   33.7067   42.3830 H   0  0  0  0  0  0  0  0  0  0  0  0  # atno 496  bound_to 491 

> <Gold.Score>
     Score     S(PLP)   S(hbond)     S(cho)   S(metal)  DE(clash)   DE(tors)     intcor
     42.03     -42.52       0.00       0.00       0.00       0.00       0.25       0.01

> <Gold.PLP.Fitness>
42.0252

> <Gold.PLP.PLP>
-42.5212

> <Gold.PLP.part.hbond>
0.0000

> <Gold.PLP.part.metal>
0.0000

> <Gold.PLP.part.buried>
-1.9281

> <Gold.PLP.part.nonpolar>
-40.7674

> <Gold.PLP.part.repulsive>
0.0801

> <Gold.PLP.ligand.clash>
0.0000

> <Gold.PLP.ligand.torsion>
0.2518

> <Gold.PLP.Chemscore.Hbond>
0.0000

> <Gold.PLP.Chemscore.CHOScore>
0.0000

> <Gold.PLP.Chemscore.Metal>
0.0000

> <Gold.PLP.Chemscore.Internal.Correction>
0.0076

