#       Name:                EN300-132481_i001
#       Creating user name   aseyller
#       Creation time:       Fri Apr 21 19:20:36 2023


#       File generated by GOLD software.
#

@<TRIPOS>MOLECULE
EN300-132481_i001|benzaldehydes|mol2|796|dock6
    28    29     1
SMALL
USER_CHARGES


@<TRIPOS>ATOM
      1 C1          28.5132  36.1095  42.0116 C.3            1 <1>                0.0000
      2 C2          27.7114  36.0446  40.7100 C.3            1 <1>                0.0000
      3 C3          26.4405  36.8845  40.8516 C.3            1 <1>                0.0000
      4 N4          28.5258  36.5708  39.6065 N.3            1 <1>                0.0000
      5 C5          27.7181  36.7410  38.3906 C.3            1 <1>                0.0000
      6 C6          28.4621  37.6438  37.4024 C.3            1 <1>                0.0000
      7 C7          29.8776  37.1029  37.2379 C.2            1 <1>                0.0000
      8 N8          30.6782  37.4270  36.2511 N.2            1 <1>                0.0000
      9 C9          31.8609  36.8767  36.2498 C.2            1 <1>                0.0000
     10 C10         32.9026  37.1007  35.2461 C.2            1 <1>                0.0000
     11 O11         33.8866  36.3909  35.2242 O.2            1 <1>                0.0000
     12 S12         32.0007  35.8214  37.6515 S.3            1 <1>                0.0000
     13 C13         30.4121  36.2262  38.1283 C.2            1 <1>                0.0000
     14 C14         29.6873  35.7050  39.3488 C.3            1 <1>                0.0000
     15 H15         28.7832  37.1447  42.2207 H              1 <1>                0.0000
     16 H16         27.9090  35.7191  42.8304 H              1 <1>                0.0000
     17 H17         29.4187  35.5111  41.9108 H              1 <1>                0.0000
     18 H18         27.4414  35.0095  40.5010 H              1 <1>                0.0000
     19 H19         26.7104  37.9197  41.0607 H              1 <1>                0.0000
     20 H20         25.8692  36.8383  39.9244 H              1 <1>                0.0000
     21 H21         25.8362  36.4941  41.6705 H              1 <1>                0.0000
     22 H22         27.5428  35.7678  37.9321 H              1 <1>                0.0000
     23 H23         26.7627  37.1969  38.6504 H              1 <1>                0.0000
     24 H24         27.9508  37.6354  36.4397 H              1 <1>                0.0000
     25 H25         28.4999  38.6616  37.7906 H              1 <1>                0.0000
     26 H26         32.7954  37.8975  34.5252 H              1 <1>                0.0000
     27 H27         30.3569  35.7244  40.2087 H              1 <1>                0.0000
     28 H28         29.3498  34.6847  39.1667 H              1 <1>                0.0000
@<TRIPOS>BOND
    1    1    2 1     
    2    1   15 1     
    3    1   16 1     
    4    1   17 1     
    5    2    3 1     
    6    2    4 1     
    7    2   18 1     
    8    3   19 1     
    9    3   20 1     
   10    3   21 1     
   11    4    5 1     
   12    4   14 1     
   13    5    6 1     
   14    5   22 1     
   15    5   23 1     
   16    6    7 1     
   17    6   24 1     
   18    6   25 1     
   19    7    8 1     
   20    7   13 2     
   21    8    9 2     
   22    9   10 1     
   23    9   12 1     
   24   10   11 2     
   25   10   26 1     
   26   12   13 1     
   27   13   14 1     
   28   14   27 1     
   29   14   28 1     
@<TRIPOS>SUBSTRUCTURE
      1 ****           1
@<TRIPOS>COMMENT
> <Gold.Version>
2022.2.0

> <Gold.Id.Protein>
1qkm|1qkm_protein|mol2

> <Gold.Protein.RotatedTorsions>
[  496  491  490  487 ] final -153.12 input  -89.99 | X-H torsion

> <Gold.Protein.ActiveResidues>
 MET295  LEU298  THR299  LEU301  ALA302  GLU305  TRP335  MET336  LEU339  MET340 
 GLY342  LEU343  ARG346  PHE356  ILE373  ILE376  PHE377  LEU380  LYS471  GLY472 
 MET473  HIS475  LEU476  LEU477  ASN478  MET479  VAL484  VAL487 

> <Gold.Protein.RotatedAtoms>
   37.2465   33.8711   40.7277 H   0  0  0  0  0  0  0  0  0  0  0  0  # atno 496  bound_to 491 

> <Gold.Score>
     Score     S(PLP)   S(hbond)     S(cho)   S(metal)  DE(clash)   DE(tors)     intcor
     43.47     -43.65       0.00       0.00       0.00       0.00       0.09       0.01

> <Gold.PLP.Fitness>
43.4707

> <Gold.PLP.PLP>
-43.6512

> <Gold.PLP.part.hbond>
0.0000

> <Gold.PLP.part.metal>
0.0000

> <Gold.PLP.part.buried>
-3.6715

> <Gold.PLP.part.nonpolar>
-39.9893

> <Gold.PLP.part.repulsive>
0.1616

> <Gold.PLP.ligand.clash>
0.0000

> <Gold.PLP.ligand.torsion>
0.0941

> <Gold.PLP.Chemscore.Hbond>
0.0000

> <Gold.PLP.Chemscore.CHOScore>
0.0000

> <Gold.PLP.Chemscore.Metal>
0.0000

> <Gold.PLP.Chemscore.Internal.Correction>
0.0076

