#       Name:                EN300-132481_i001
#       Creating user name   aseyller
#       Creation time:       Fri Apr 21 19:20:39 2023


#       File generated by GOLD software.
#

@<TRIPOS>MOLECULE
EN300-132481_i001|benzaldehydes|mol2|796|dock12
    28    29     1
SMALL
USER_CHARGES


@<TRIPOS>ATOM
      1 C1          32.4513  35.7175  35.5112 C.3            1 <1>                0.0000
      2 C2          32.6090  36.8905  36.4809 C.3            1 <1>                0.0000
      3 C3          32.6255  38.2031  35.6950 C.3            1 <1>                0.0000
      4 N4          31.4842  36.8995  37.4256 N.3            1 <1>                0.0000
      5 C5          31.3215  35.5856  38.0633 C.3            1 <1>                0.0000
      6 C6          30.4337  35.7232  39.3035 C.3            1 <1>                0.0000
      7 C7          29.1688  36.4725  38.9013 C.2            1 <1>                0.0000
      8 N8          28.0679  36.4915  39.6136 N.2            1 <1>                0.0000
      9 C9          27.0690  37.1786  39.1321 C.2            1 <1>                0.0000
     10 C10         25.7574  37.3301  39.7642 C.2            1 <1>                0.0000
     11 O11         25.5764  36.9205  40.8920 O.2            1 <1>                0.0000
     12 S12         27.5548  37.8940  37.5993 S.3            1 <1>                0.0000
     13 C13         29.1016  37.1866  37.7468 C.2            1 <1>                0.0000
     14 C14         30.2402  37.3183  36.7604 C.3            1 <1>                0.0000
     15 H15         31.5159  35.8238  34.9616 H              1 <1>                0.0000
     16 H16         33.2859  35.7108  34.8102 H              1 <1>                0.0000
     17 H17         32.4395  34.7823  36.0710 H              1 <1>                0.0000
     18 H18         33.5443  36.7842  37.0304 H              1 <1>                0.0000
     19 H19         31.6903  38.3094  35.1453 H              1 <1>                0.0000
     20 H20         32.7380  39.0388  36.3857 H              1 <1>                0.0000
     21 H21         33.4602  38.1964  34.9939 H              1 <1>                0.0000
     22 H22         30.8570  34.8953  37.3591 H              1 <1>                0.0000
     23 H23         32.2984  35.2013  38.3570 H              1 <1>                0.0000
     24 H24         30.1717  34.7344  39.6800 H              1 <1>                0.0000
     25 H25         30.9632  36.2827  40.0747 H              1 <1>                0.0000
     26 H26         24.9508  37.8065  39.2268 H              1 <1>                0.0000
     27 H27         30.3280  38.3561  36.4387 H              1 <1>                0.0000
     28 H28         30.0534  36.6788  35.8977 H              1 <1>                0.0000
@<TRIPOS>BOND
    1    1    2 1     
    2    1   15 1     
    3    1   16 1     
    4    1   17 1     
    5    2    3 1     
    6    2    4 1     
    7    2   18 1     
    8    3   19 1     
    9    3   20 1     
   10    3   21 1     
   11    4    5 1     
   12    4   14 1     
   13    5    6 1     
   14    5   22 1     
   15    5   23 1     
   16    6    7 1     
   17    6   24 1     
   18    6   25 1     
   19    7    8 1     
   20    7   13 2     
   21    8    9 2     
   22    9   10 1     
   23    9   12 1     
   24   10   11 2     
   25   10   26 1     
   26   12   13 1     
   27   13   14 1     
   28   14   27 1     
   29   14   28 1     
@<TRIPOS>SUBSTRUCTURE
      1 ****           1
@<TRIPOS>COMMENT
> <Gold.Version>
2022.2.0

> <Gold.Id.Protein>
1qkm|1qkm_protein|mol2

> <Gold.Protein.RotatedTorsions>
[  496  491  490  487 ] final  -67.23 input  -89.99 | X-H torsion

> <Gold.Protein.ActiveResidues>
 MET295  LEU298  THR299  LEU301  ALA302  GLU305  TRP335  MET336  LEU339  MET340 
 GLY342  LEU343  ARG346  PHE356  ILE373  ILE376  PHE377  LEU380  LYS471  GLY472 
 MET473  HIS475  LEU476  LEU477  ASN478  MET479  VAL484  VAL487 

> <Gold.Protein.RotatedAtoms>
   36.5550   34.7353   41.3810 H   0  0  0  0  0  0  0  0  0  0  0  0  # atno 496  bound_to 491 

> <Gold.Score>
     Score     S(PLP)   S(hbond)     S(cho)   S(metal)  DE(clash)   DE(tors)     intcor
     41.58     -41.80       0.00       0.00       0.00       0.00       0.12       0.01

> <Gold.PLP.Fitness>
41.5804

> <Gold.PLP.PLP>
-41.8048

> <Gold.PLP.part.hbond>
0.0000

> <Gold.PLP.part.metal>
0.0000

> <Gold.PLP.part.buried>
-3.3262

> <Gold.PLP.part.nonpolar>
-38.5571

> <Gold.PLP.part.repulsive>
0.1755

> <Gold.PLP.ligand.clash>
0.0000

> <Gold.PLP.ligand.torsion>
0.1160

> <Gold.PLP.Chemscore.Hbond>
0.0000

> <Gold.PLP.Chemscore.CHOScore>
0.0000

> <Gold.PLP.Chemscore.Metal>
0.0000

> <Gold.PLP.Chemscore.Internal.Correction>
0.0076

