#       Name:                EN300-132481_i001
#       Creating user name   aseyller
#       Creation time:       Fri Apr 21 19:20:34 2023


#       File generated by GOLD software.
#

@<TRIPOS>MOLECULE
EN300-132481_i001|benzaldehydes|mol2|796|dock1
    28    29     1
SMALL
USER_CHARGES


@<TRIPOS>ATOM
      1 C1          33.1011  35.0780  36.9919 C.3            1 <1>                0.0000
      2 C2          32.7078  36.5293  36.7085 C.3            1 <1>                0.0000
      3 C3          33.0012  36.8604  35.2439 C.3            1 <1>                0.0000
      4 N4          31.2741  36.7088  36.9734 N.3            1 <1>                0.0000
      5 C5          30.8596  38.0941  36.7114 C.3            1 <1>                0.0000
      6 C6          29.3335  38.1616  36.6036 C.3            1 <1>                0.0000
      7 C7          28.7399  37.4674  37.8239 C.2            1 <1>                0.0000
      8 N8          27.4973  37.6093  38.2182 N.2            1 <1>                0.0000
      9 C9          27.1409  36.9484  39.2849 C.2            1 <1>                0.0000
     10 C10         25.8085  36.9654  39.8908 C.2            1 <1>                0.0000
     11 O11         25.6188  36.4138  40.9550 O.2            1 <1>                0.0000
     12 S12         28.5223  36.0324  39.8767 S.3            1 <1>                0.0000
     13 C13         29.4829  36.6359  38.6008 C.2            1 <1>                0.0000
     14 C14         30.9384  36.3113  38.3498 C.3            1 <1>                0.0000
     15 H15         32.5263  34.4133  36.3469 H              1 <1>                0.0000
     16 H16         34.1648  34.9448  36.7954 H              1 <1>                0.0000
     17 H17         32.8920  34.8421  38.0354 H              1 <1>                0.0000
     18 H18         33.2826  37.1939  37.3535 H              1 <1>                0.0000
     19 H19         32.4265  36.1957  34.5989 H              1 <1>                0.0000
     20 H20         32.7212  37.8942  35.0420 H              1 <1>                0.0000
     21 H21         34.0651  36.7271  35.0473 H              1 <1>                0.0000
     22 H22         31.1944  38.7338  37.5280 H              1 <1>                0.0000
     23 H23         31.3050  38.4357  35.7770 H              1 <1>                0.0000
     24 H24         29.0120  39.2028  36.5799 H              1 <1>                0.0000
     25 H25         29.0060  37.6542  35.6962 H              1 <1>                0.0000
     26 H26         24.9944  37.4689  39.3909 H              1 <1>                0.0000
     27 H27         31.1013  35.2404  38.4722 H              1 <1>                0.0000
     28 H28         31.5632  36.8624  39.0526 H              1 <1>                0.0000
@<TRIPOS>BOND
    1    1    2 1     
    2    1   15 1     
    3    1   16 1     
    4    1   17 1     
    5    2    3 1     
    6    2    4 1     
    7    2   18 1     
    8    3   19 1     
    9    3   20 1     
   10    3   21 1     
   11    4    5 1     
   12    4   14 1     
   13    5    6 1     
   14    5   22 1     
   15    5   23 1     
   16    6    7 1     
   17    6   24 1     
   18    6   25 1     
   19    7    8 1     
   20    7   13 2     
   21    8    9 2     
   22    9   10 1     
   23    9   12 1     
   24   10   11 2     
   25   10   26 1     
   26   12   13 1     
   27   13   14 1     
   28   14   27 1     
   29   14   28 1     
@<TRIPOS>SUBSTRUCTURE
      1 ****           1
@<TRIPOS>COMMENT
> <Gold.Version>
2022.2.0

> <Gold.Id.Protein>
1qkm|1qkm_protein|mol2

> <Gold.Protein.RotatedTorsions>
[  496  491  490  487 ] final  105.48 input  -89.99 | X-H torsion

> <Gold.Protein.ActiveResidues>
 MET295  LEU298  THR299  LEU301  ALA302  GLU305  TRP335  MET336  LEU339  MET340 
 GLY342  LEU343  ARG346  PHE356  ILE373  ILE376  PHE377  LEU380  LYS471  GLY472 
 MET473  HIS475  LEU476  LEU477  ASN478  MET479  VAL484  VAL487 

> <Gold.Protein.RotatedAtoms>
   36.9603   32.9512   41.8244 H   0  0  0  0  0  0  0  0  0  0  0  0  # atno 496  bound_to 491 

> <Gold.Score>
     Score     S(PLP)   S(hbond)     S(cho)   S(metal)  DE(clash)   DE(tors)     intcor
     43.58     -43.61       0.00       0.00       0.00       0.00       0.02       0.01

> <Gold.PLP.Fitness>
43.5782

> <Gold.PLP.PLP>
-43.6080

> <Gold.PLP.part.hbond>
0.0000

> <Gold.PLP.part.metal>
0.0000

> <Gold.PLP.part.buried>
-3.4973

> <Gold.PLP.part.nonpolar>
-40.5079

> <Gold.PLP.part.repulsive>
0.2020

> <Gold.PLP.ligand.clash>
0.0000

> <Gold.PLP.ligand.torsion>
0.0187

> <Gold.PLP.Chemscore.Hbond>
0.0000

> <Gold.PLP.Chemscore.CHOScore>
0.0000

> <Gold.PLP.Chemscore.Metal>
0.0000

> <Gold.PLP.Chemscore.Internal.Correction>
0.0076

