#       Name:                EN300-132481_i001
#       Creating user name   aseyller
#       Creation time:       Fri Apr 21 19:20:38 2023


#       File generated by GOLD software.
#

@<TRIPOS>MOLECULE
EN300-132481_i001|benzaldehydes|mol2|796|dock11
    28    29     1
SMALL
USER_CHARGES


@<TRIPOS>ATOM
      1 C1          30.5408  37.7910  35.0294 C.3            1 <1>                0.0000
      2 C2          30.9217  38.6156  36.2607 C.3            1 <1>                0.0000
      3 C3          30.5446  40.0803  36.0301 C.3            1 <1>                0.0000
      4 N4          30.2021  38.1037  37.4346 N.3            1 <1>                0.0000
      5 C5          30.6535  36.7482  37.7792 C.3            1 <1>                0.0000
      6 C6          30.2008  36.4023  39.2006 C.3            1 <1>                0.0000
      7 C7          28.7092  36.6969  39.3090 C.2            1 <1>                0.0000
      8 N8          27.9354  36.2322  40.2603 N.2            1 <1>                0.0000
      9 C9          26.6774  36.5740  40.2132 C.2            1 <1>                0.0000
     10 C10         25.6487  36.1673  41.1718 C.2            1 <1>                0.0000
     11 O11         24.9254  37.0012  41.6760 O.2            1 <1>                0.0000
     12 S12         26.4182  37.6040  38.8098 S.3            1 <1>                0.0000
     13 C13         28.0711  37.4807  38.4003 C.2            1 <1>                0.0000
     14 C14         28.7473  38.1331  37.2156 C.3            1 <1>                0.0000
     15 H15         29.4669  37.8673  34.8591 H              1 <1>                0.0000
     16 H16         31.0747  38.1708  34.1584 H              1 <1>                0.0000
     17 H17         30.8095  36.7475  35.1937 H              1 <1>                0.0000
     18 H18         31.9956  38.5393  36.4310 H              1 <1>                0.0000
     19 H19         29.4707  40.1566  35.8598 H              1 <1>                0.0000
     20 H20         30.8160  40.6678  36.9073 H              1 <1>                0.0000
     21 H21         31.0785  40.4602  35.1590 H              1 <1>                0.0000
     22 H22         30.2242  36.0332  37.0773 H              1 <1>                0.0000
     23 H23         31.7412  36.7028  37.7234 H              1 <1>                0.0000
     24 H24         30.3824  35.3457  39.3977 H              1 <1>                0.0000
     25 H25         30.7491  37.0108  39.9197 H              1 <1>                0.0000
     26 H26         25.5333  35.1252  41.4304 H              1 <1>                0.0000
     27 H27         28.4111  39.1661  37.1249 H              1 <1>                0.0000
     28 H28         28.5030  37.5842  36.3062 H              1 <1>                0.0000
@<TRIPOS>BOND
    1    1    2 1     
    2    1   15 1     
    3    1   16 1     
    4    1   17 1     
    5    2    3 1     
    6    2    4 1     
    7    2   18 1     
    8    3   19 1     
    9    3   20 1     
   10    3   21 1     
   11    4    5 1     
   12    4   14 1     
   13    5    6 1     
   14    5   22 1     
   15    5   23 1     
   16    6    7 1     
   17    6   24 1     
   18    6   25 1     
   19    7    8 1     
   20    7   13 2     
   21    8    9 2     
   22    9   10 1     
   23    9   12 1     
   24   10   11 2     
   25   10   26 1     
   26   12   13 1     
   27   13   14 1     
   28   14   27 1     
   29   14   28 1     
@<TRIPOS>SUBSTRUCTURE
      1 ****           1
@<TRIPOS>COMMENT
> <Gold.Version>
2022.2.0

> <Gold.Id.Protein>
1qkm|1qkm_protein|mol2

> <Gold.Protein.RotatedTorsions>
[  496  491  490  487 ] final -113.89 input  -89.99 | X-H torsion

> <Gold.Protein.ActiveResidues>
 MET295  LEU298  THR299  LEU301  ALA302  GLU305  TRP335  MET336  LEU339  MET340 
 GLY342  LEU343  ARG346  PHE356  ILE373  ILE376  PHE377  LEU380  LYS471  GLY472 
 MET473  HIS475  LEU476  LEU477  ASN478  MET479  VAL484  VAL487 

> <Gold.Protein.RotatedAtoms>
   36.9743   34.4312   40.8426 H   0  0  0  0  0  0  0  0  0  0  0  0  # atno 496  bound_to 491 

> <Gold.Score>
     Score     S(PLP)   S(hbond)     S(cho)   S(metal)  DE(clash)   DE(tors)     intcor
     43.27     -42.86       0.45       0.00       0.00       0.00       0.47       0.01

> <Gold.PLP.Fitness>
43.2723

> <Gold.PLP.PLP>
-42.8617

> <Gold.PLP.part.hbond>
-1.0000

> <Gold.PLP.part.metal>
0.0000

> <Gold.PLP.part.buried>
-3.1443

> <Gold.PLP.part.nonpolar>
-39.4561

> <Gold.PLP.part.repulsive>
0.3298

> <Gold.PLP.ligand.clash>
0.0000

> <Gold.PLP.ligand.torsion>
0.4705

> <Gold.PLP.Chemscore.Hbond>
0.4480

> <Gold.PLP.Chemscore.CHOScore>
0.0000

> <Gold.PLP.Chemscore.Metal>
0.0000

> <Gold.Chemscore.Hbonds>
donor molecule, donor type, donor heavy atom, donor atom, acceptor molecule, acceptor atom, score
      P1  H  1258  1270       L1    11  0.45

> <Gold.PLP.Chemscore.Internal.Correction>
0.0076

