#       Name:                EN300-132481_i001
#       Creating user name   aseyller
#       Creation time:       Fri Apr 21 19:20:35 2023


#       File generated by GOLD software.
#

@<TRIPOS>MOLECULE
EN300-132481_i001|benzaldehydes|mol2|796|dock3
    28    29     1
SMALL
USER_CHARGES


@<TRIPOS>ATOM
      1 C1          32.3832  34.4439  37.6060 C.3            1 <1>                0.0000
      2 C2          31.9931  35.8879  37.2835 C.3            1 <1>                0.0000
      3 C3          32.1242  36.1274  35.7781 C.3            1 <1>                0.0000
      4 N4          30.6037  36.1239  37.6977 N.3            1 <1>                0.0000
      5 C5          30.1991  37.5090  37.4194 C.3            1 <1>                0.0000
      6 C6          28.6730  37.6199  37.4791 C.3            1 <1>                0.0000
      7 C7          28.2024  36.9983  38.7888 C.2            1 <1>                0.0000
      8 N8          27.0163  37.1963  39.3120 N.2            1 <1>                0.0000
      9 C9          26.7648  36.5937  40.4413 C.2            1 <1>                0.0000
     10 C10         25.5102  36.6790  41.1904 C.2            1 <1>                0.0000
     11 O11         25.4161  37.4388  42.1319 O.2            1 <1>                0.0000
     12 S12         28.1793  35.6609  40.9176 S.3            1 <1>                0.0000
     13 C13         29.0058  36.1780  39.5160 C.2            1 <1>                0.0000
     14 C14         30.4146  35.7970  39.1200 C.3            1 <1>                0.0000
     15 H15         31.7234  33.7612  37.0706 H              1 <1>                0.0000
     16 H16         33.4141  34.2688  37.2987 H              1 <1>                0.0000
     17 H17         32.2898  34.2732  38.6785 H              1 <1>                0.0000
     18 H18         32.6529  36.5706  37.8189 H              1 <1>                0.0000
     19 H19         31.4645  35.4447  35.2427 H              1 <1>                0.0000
     20 H20         31.8464  37.1561  35.5484 H              1 <1>                0.0000
     21 H21         33.1552  35.9523  35.4708 H              1 <1>                0.0000
     22 H22         30.6407  38.1725  38.1630 H              1 <1>                0.0000
     23 H23         30.5454  37.7956  36.4264 H              1 <1>                0.0000
     24 H24         28.3786  38.6688  37.4429 H              1 <1>                0.0000
     25 H25         28.2320  37.0844  36.6383 H              1 <1>                0.0000
     26 H26         24.6682  36.0659  40.9051 H              1 <1>                0.0000
     27 H27         30.5618  34.7279  39.2731 H              1 <1>                0.0000
     28 H28         31.1290  36.3581  39.7224 H              1 <1>                0.0000
@<TRIPOS>BOND
    1    1    2 1     
    2    1   15 1     
    3    1   16 1     
    4    1   17 1     
    5    2    3 1     
    6    2    4 1     
    7    2   18 1     
    8    3   19 1     
    9    3   20 1     
   10    3   21 1     
   11    4    5 1     
   12    4   14 1     
   13    5    6 1     
   14    5   22 1     
   15    5   23 1     
   16    6    7 1     
   17    6   24 1     
   18    6   25 1     
   19    7    8 1     
   20    7   13 2     
   21    8    9 2     
   22    9   10 1     
   23    9   12 1     
   24   10   11 2     
   25   10   26 1     
   26   12   13 1     
   27   13   14 1     
   28   14   27 1     
   29   14   28 1     
@<TRIPOS>SUBSTRUCTURE
      1 ****           1
@<TRIPOS>COMMENT
> <Gold.Version>
2022.2.0

> <Gold.Id.Protein>
1qkm|1qkm_protein|mol2

> <Gold.Protein.RotatedTorsions>
[  496  491  490  487 ] final   92.46 input  -89.99 | X-H torsion

> <Gold.Protein.ActiveResidues>
 MET295  LEU298  THR299  LEU301  ALA302  GLU305  TRP335  MET336  LEU339  MET340 
 GLY342  LEU343  ARG346  PHE356  ILE373  ILE376  PHE377  LEU380  LYS471  GLY472 
 MET473  HIS475  LEU476  LEU477  ASN478  MET479  VAL484  VAL487 

> <Gold.Protein.RotatedAtoms>
   36.8429   33.0066   41.9944 H   0  0  0  0  0  0  0  0  0  0  0  0  # atno 496  bound_to 491 

> <Gold.Score>
     Score     S(PLP)   S(hbond)     S(cho)   S(metal)  DE(clash)   DE(tors)     intcor
     45.20     -46.47       0.07       0.00       0.00       0.00       0.74       0.01

> <Gold.PLP.Fitness>
45.1996

> <Gold.PLP.PLP>
-46.4726

> <Gold.PLP.part.hbond>
-0.9483

> <Gold.PLP.part.metal>
0.0000

> <Gold.PLP.part.buried>
-3.9958

> <Gold.PLP.part.nonpolar>
-42.4567

> <Gold.PLP.part.repulsive>
0.2825

> <Gold.PLP.ligand.clash>
0.0000

> <Gold.PLP.ligand.torsion>
0.7437

> <Gold.PLP.Chemscore.Hbond>
0.0689

> <Gold.PLP.Chemscore.CHOScore>
0.0000

> <Gold.PLP.Chemscore.Metal>
0.0000

> <Gold.Chemscore.Hbonds>
donor molecule, donor type, donor heavy atom, donor atom, acceptor molecule, acceptor atom, score
      P1  H  1258  1270       L1    11  0.07

> <Gold.PLP.Chemscore.Internal.Correction>
0.0076

