#       Name:                plp ligand
#       Creating user name   aseyller
#       Creation time:       Fri Apr 21 19:20:33 2023


#       File generated by GOLD software.
#

@<TRIPOS>MOLECULE
plp ligand
    28    29     1
SMALL
USER_CHARGES


@<TRIPOS>ATOM
      1 C1          -2.6550   1.6414  -0.5504 NONPOLAR       1 <1>                0.0000
      2 C2          -2.3052   0.3333   0.1621 NONPOLAR       1 <1>                0.0000
      3 C3          -3.1923  -0.7922  -0.3737 NONPOLAR       1 <1>                0.0000
      4 N4          -0.8948   0.0041  -0.0832 ACCEPTOR       1 <1>                0.0000
      5 C5          -0.5222  -1.2493   0.5875 NONPOLAR       1 <1>                0.0000
      6 C6           0.7941  -1.7717   0.0048 NONPOLAR       1 <1>                0.0000
      7 C7           1.8076  -0.6334   0.0254 NONPOLAR       1 <1>                0.0000
      8 N8           3.1025  -0.7999  -0.0980 ACCEPTOR       1 <1>                0.0000
      9 C9           3.8391   0.2760  -0.0582 NONPOLAR       1 <1>                0.0000
     10 C10          5.2976   0.3135  -0.1763 NONPOLAR       1 <1>                0.0000
     11 O11          5.9210  -0.7170  -0.3249 ACCEPTOR       1 <1>                0.0000
     12 S12          2.7940   1.6752   0.1601 NONPOLAR       1 <1>                0.0000
     13 C13          1.4210   0.6606   0.1780 NONPOLAR       1 <1>                0.0000
     14 C14         -0.0152   1.1064   0.3369 NONPOLAR       1 <1>                0.0000
     15 H15         -2.4895   1.5270  -1.6217                1 <1>                0.0000
     16 H16         -3.7015   1.8857  -0.3684                1 <1>                0.0000
     17 H17         -2.0230   2.4433  -0.1687                1 <1>                0.0000
     18 H18         -2.4707   0.4477   1.2334                1 <1>                0.0000
     19 H19         -3.0269  -0.9066  -1.4450                1 <1>                0.0000
     20 H20         -2.9432  -1.7241   0.1339                1 <1>                0.0000
     21 H21         -4.2389  -0.5479  -0.1917                1 <1>                0.0000
     22 H22         -0.3996  -1.0671   1.6552                1 <1>                0.0000
     23 H23         -1.3067  -1.9903   0.4338                1 <1>                0.0000
     24 H24          1.1604  -2.6015   0.6093                1 <1>                0.0000
     25 H25          0.6358  -2.1048  -1.0209                1 <1>                0.0000
     26 H26          5.8189   1.2582  -0.1312                1 <1>                0.0000
     27 H27         -0.1988   1.9804  -0.2881                1 <1>                0.0000
     28 H28         -0.2093   1.3518   1.3810                1 <1>                0.0000
@<TRIPOS>BOND
    1    1    2 1     
    2    1   15 1     
    3    1   16 1     
    4    1   17 1     
    5    2    3 1     
    6    2    4 1     
    7    2   18 1     
    8    3   19 1     
    9    3   20 1     
   10    3   21 1     
   11    4    5 1     
   12    4   14 1     
   13    5    6 1     
   14    5   22 1     
   15    5   23 1     
   16    6    7 1     
   17    6   24 1     
   18    6   25 1     
   19    7    8 1     
   20    7   13 2     
   21    8    9 2     
   22    9   10 1     
   23    9   12 1     
   24   10   11 2     
   25   10   26 1     
   26   12   13 1     
   27   13   14 1     
   28   14   27 1     
   29   14   28 1     
@<TRIPOS>SUBSTRUCTURE
      1 ****           1
@<TRIPOS>SET
DONOR_HYDROGENS      STATIC     ATOMS    <user>   **** ""
0
ATOM$RED        STATIC     ATOMS    COLORGROUP SYSTEM
0
