#       Name:                EN300-266730_i001
#       Creating user name   fsindt
#       Creation time:       Wed Mar  1 03:28:44 2023


#       File generated by GOLD software.
#

@<TRIPOS>MOLECULE
EN300-266730_i001|amine_7|mol2|10229|dock11
    33    35     1
SMALL
USER_CHARGES


@<TRIPOS>ATOM
      1 C1          -0.4591 -14.7837  12.3951 C.3            1 <1>                0.0000
      2 C2           0.8511 -14.6291  11.5966 C.3            1 <1>                0.0000
      3 O3           1.7750 -15.6178  12.0929 O.3            1 <1>                0.0000
      4 C4           1.3791 -15.8925  13.4436 C.3            1 <1>                0.0000
      5 C5           1.9920 -17.1637  13.9883 C.3            1 <1>                0.0000
      6 C6           1.4259 -18.3926  13.2738 C.3            1 <1>                0.0000
      7 C7          -0.1001 -18.3662  13.4182 C.3            1 <1>                0.0000
      8 N8          -0.6151 -17.1790  12.7335 N.4            1 <1>                1.0000
      9 C9          -0.1594 -15.9459  13.3866 C.3            1 <1>                0.0000
     10 C10          0.5887 -14.8629  10.1312 C.ar           1 <1>                0.0000
     11 C11         -0.0770 -16.0031   9.7216 C.ar           1 <1>                0.0000
     12 C12         -0.3177 -16.2177   8.3774 C.ar           1 <1>                0.0000
     13 C13          0.1069 -15.2918   7.4427 C.ar           1 <1>                0.0000
     14 C14          0.7717 -14.1512   7.8525 C.ar           1 <1>                0.0000
     15 C15          1.0087 -13.9345   9.1970 C.ar           1 <1>                0.0000
     16 H16         -0.6860 -13.8665  12.9386 H              1 <1>                0.0000
     17 H17         -1.2820 -15.0497  11.7317 H              1 <1>                0.0000
     18 H18          1.2611 -13.6304  11.7470 H              1 <1>                0.0000
     19 H19          1.6709 -15.0552  14.0776 H              1 <1>                0.0000
     20 H20          3.0718 -17.1313  13.8442 H              1 <1>                0.0000
     21 H21          1.7757 -17.2377  15.0541 H              1 <1>                0.0000
     22 H22          1.6963 -18.3619  12.2184 H              1 <1>                0.0000
     23 H23          1.8232 -19.2993  13.7300 H              1 <1>                0.0000
     24 H24         -0.5259 -19.2624  12.9665 H              1 <1>                0.0000
     25 H25         -0.3669 -18.3240  14.4742 H              1 <1>                0.0000
     26 H26         -0.6268 -15.7970  14.3600 H              1 <1>                0.0000
     27 H27         -0.4086 -16.7265  10.4518 H              1 <1>                0.0000
     28 H28         -0.8371 -17.1088   8.0573 H              1 <1>                0.0000
     29 H29         -0.0806 -15.4598   6.3926 H              1 <1>                0.0000
     30 H30          1.1038 -13.4280   7.1223 H              1 <1>                0.0000
     31 H31          1.5281 -13.0434   9.5171 H              1 <1>                0.0000
     32 H32         -0.2941 -17.1842  11.7769 H              1 <1>                0.0000
     33 H33         -1.6237 -17.2040  12.7424 H              1 <1>                0.0000
@<TRIPOS>BOND
    1    1    2 1     
    2    1    9 1     
    3    1   16 1     
    4    1   17 1     
    5    2    3 1     
    6    2   10 1     
    7    2   18 1     
    8    3    4 1     
    9    4    5 1     
   10    4    9 1     
   11    4   19 1     
   12    5    6 1     
   13    5   20 1     
   14    5   21 1     
   15    6    7 1     
   16    6   22 1     
   17    6   23 1     
   18    7    8 1     
   19    7   24 1     
   20    7   25 1     
   21    8    9 1     
   22    8   32 1     
   23    8   33 1     
   24    9   26 1     
   25   10   11 ar    
   26   10   15 ar    
   27   11   12 ar    
   28   11   27 1     
   29   12   13 ar    
   30   12   28 1     
   31   13   14 ar    
   32   13   29 1     
   33   14   15 ar    
   34   14   30 1     
   35   15   31 1     
@<TRIPOS>SUBSTRUCTURE
      1 ****           1
@<TRIPOS>SET
DONOR_HYDROGENS      STATIC     ATOMS    <user>   **** ""
2 32 33
ATOM$RED        STATIC     ATOMS    COLORGROUP SYSTEM
2 32 33
@<TRIPOS>COMMENT
> <Gold.Version>
2022.2.0

> <Gold.Id.Protein>
3pbl|protein|mol2

> <Gold.Protein.RotatedTorsions>
[ 1303 1298 1297 1294 ] final   51.64 input  179.99 | X-H torsion
[ 2461 2456 2455 2452 ] final  164.83 input   30.03 | X-H torsion
[ 2515 2510 2509 2506 ] final -154.35 input  -89.99 | X-H torsion
[ 3721 3712 3711 3710 ] final  -87.14 input -179.91 | X-H torsion
[ 3841 3832 3831 3830 ] final   79.15 input -179.91 | X-H torsion
[ 3767 3762 3761 3758 ] final -134.07 input  -89.99 | X-H torsion
[ 2472 2467 2466 2463 ] final   92.30 input  -89.97 | X-H torsion

> <Gold.Protein.ActiveResidues>
 VAL82   VAL86   LEU89   PHE106  VAL107  ASP110  VAL111  MET112  CYS114  THR115 
 CYS181  SER182  ILE183  PHE188  VAL189  ILE190  SER192  SER193  SER196  TRP342 
 PHE345  PHE346  HIS349  VAL350  TYR365  THR369  GLY372  TYR373 

> <Gold.Protein.RotatedAtoms>
    3.8954  -10.2689    4.5551 H   0  0  0  0  0  0  0  0  0  0  0  0  # atno 1303 bound_to 1298
    1.6773   -9.1159    8.3793 H   0  0  0  0  0  0  0  0  0  0  0  0  # atno 2461 bound_to 2456
   -5.1318   -4.9296    7.8148 H   0  0  0  0  0  0  0  0  0  0  0  0  # atno 2472 bound_to 2467
    2.5027   -9.2269    5.5153 H   0  0  0  0  0  0  0  0  0  0  0  0  # atno 2515 bound_to 2510
   -3.0039  -16.9832   14.7014 H   0  0  0  0  0  0  0  0  0  0  0  0  # atno 3721 bound_to 3712
   -4.6523  -22.0544   11.6056 H   0  0  0  0  0  0  0  0  0  0  0  0  # atno 3767 bound_to 3762
    2.7186  -20.9511    9.3663 H   0  0  0  0  0  0  0  0  0  0  0  0  # atno 3841 bound_to 3832
    3.5765   -8.8634    3.7874 LP  0  0  0  0  0  0  0  0  0  0  0  0  # atno 4297 bound_to 1298
    4.8903   -8.9887    4.7490 LP  0  0  0  0  0  0  0  0  0  0  0  0  # atno 4298 bound_to 1298
    1.7295   -7.9520    7.2348 LP  0  0  0  0  0  0  0  0  0  0  0  0  # atno 4299 bound_to 2456
    0.3311   -8.7404    7.5342 LP  0  0  0  0  0  0  0  0  0  0  0  0  # atno 4300 bound_to 2456
    2.0528   -7.6820    5.7917 LP  0  0  0  0  0  0  0  0  0  0  0  0  # atno 4301 bound_to 2510
    2.7412   -8.0898    4.3682 LP  0  0  0  0  0  0  0  0  0  0  0  0  # atno 4302 bound_to 2510
   -3.4285  -16.9087   13.1548 LP  0  0  0  0  0  0  0  0  0  0  0  0  # atno 4306 bound_to 3712
   -2.6311  -18.2102   13.7353 LP  0  0  0  0  0  0  0  0  0  0  0  0  # atno 4307 bound_to 3712
    1.3910  -20.0881    9.1039 LP  0  0  0  0  0  0  0  0  0  0  0  0  # atno 4314 bound_to 3832
    2.6980  -19.9156    8.1402 LP  0  0  0  0  0  0  0  0  0  0  0  0  # atno 4315 bound_to 3832
   -4.0446  -23.2774   10.7102 LP  0  0  0  0  0  0  0  0  0  0  0  0  # atno 4318 bound_to 3762
   -5.4304  -22.5430   10.2556 LP  0  0  0  0  0  0  0  0  0  0  0  0  # atno 4319 bound_to 3762
   -3.6409   -5.0033    8.4766 LP  0  0  0  0  0  0  0  0  0  0  0  0  # atno 4320 bound_to 2467
   -4.9443   -5.4606    9.3476 LP  0  0  0  0  0  0  0  0  0  0  0  0  # atno 4321 bound_to 2467

> <Gold.Score>
     Score     S(PLP)   S(hbond)     S(cho)   S(metal)  DE(clash)   DE(tors)     intcor
     43.72     -41.96       0.66       0.00       0.00       0.00       0.11       0.00

> <Gold.PLP.Fitness>
43.7165

> <Gold.PLP.PLP>
-41.9630

> <Gold.PLP.part.hbond>
-1.0000

> <Gold.PLP.part.metal>
0.0000

> <Gold.PLP.part.buried>
-3.4187

> <Gold.PLP.part.nonpolar>
-37.7367

> <Gold.PLP.part.repulsive>
0.1039

> <Gold.PLP.ligand.clash>
0.0000

> <Gold.PLP.ligand.torsion>
0.1085

> <Gold.PLP.Chemscore.Hbond>
0.6552

> <Gold.PLP.Chemscore.CHOScore>
0.0000

> <Gold.PLP.Chemscore.Metal>
0.0000

> <Gold.Chemscore.Hbonds>
donor molecule, donor type, donor heavy atom, donor atom, acceptor molecule, acceptor atom, score
      L1  H     8    33       P1  3712  0.66

> <Gold.PLP.Chemscore.Internal.Correction>
0.0048

