#       Name:                EN300-266730_i001
#       Creating user name   fsindt
#       Creation time:       Wed Mar  1 03:28:44 2023


#       File generated by GOLD software.
#

@<TRIPOS>MOLECULE
EN300-266730_i001|amine_7|mol2|10229|dock13
    33    35     1
SMALL
USER_CHARGES


@<TRIPOS>ATOM
      1 C1          -0.6779 -13.5056  10.5811 C.3            1 <1>                0.0000
      2 C2          -0.4493 -12.0002  10.3368 C.3            1 <1>                0.0000
      3 O3           0.3531 -11.8760   9.1459 O.3            1 <1>                0.0000
      4 C4           1.0989 -13.0961   9.0373 C.3            1 <1>                0.0000
      5 C5           1.7007 -13.2964   7.6640 C.3            1 <1>                0.0000
      6 C6           0.6091 -13.5401   6.6197 C.3            1 <1>                0.0000
      7 C7          -0.2271 -14.7410   7.0767 C.3            1 <1>                0.0000
      8 N8          -0.8882 -14.3991   8.3375 N.4            1 <1>                1.0000
      9 C9           0.0881 -14.1957   9.4146 C.3            1 <1>                0.0000
     10 C10         -1.7724 -11.3067  10.1378 C.ar           1 <1>                0.0000
     11 C11         -2.9483 -12.0308  10.1989 C.ar           1 <1>                0.0000
     12 C12         -4.1620 -11.3948  10.0163 C.ar           1 <1>                0.0000
     13 C13         -4.1998 -10.0345   9.7730 C.ar           1 <1>                0.0000
     14 C14         -3.0238  -9.3103   9.7127 C.ar           1 <1>                0.0000
     15 C15         -1.8104  -9.9456   9.8996 C.ar           1 <1>                0.0000
     16 H16         -0.2601 -13.8046  11.5424 H              1 <1>                0.0000
     17 H17         -1.7405 -13.7435  10.5343 H              1 <1>                0.0000
     18 H18          0.0767 -11.5627  11.1853 H              1 <1>                0.0000
     19 H19          1.8968 -13.0931   9.7799 H              1 <1>                0.0000
     20 H20          2.2682 -12.4077   7.3884 H              1 <1>                0.0000
     21 H21          2.3712 -14.1554   7.6884 H              1 <1>                0.0000
     22 H22         -0.0265 -12.6584   6.5390 H              1 <1>                0.0000
     23 H23          1.0654 -13.7555   5.6536 H              1 <1>                0.0000
     24 H24         -0.9779 -14.9726   6.3211 H              1 <1>                0.0000
     25 H25          0.4225 -15.6033   7.2265 H              1 <1>                0.0000
     26 H26          0.5660 -15.1264   9.7201 H              1 <1>                0.0000
     27 H27         -2.9188 -13.0936  10.3890 H              1 <1>                0.0000
     28 H28         -5.0807 -11.9606  10.0634 H              1 <1>                0.0000
     29 H29         -5.1478  -9.5377   9.6296 H              1 <1>                0.0000
     30 H30         -3.0533  -8.2476   9.5223 H              1 <1>                0.0000
     31 H31         -0.8917  -9.3797   9.8526 H              1 <1>                0.0000
     32 H32         -1.4222 -13.5523   8.2114 H              1 <1>                0.0000
     33 H33         -1.5139 -15.1473   8.5959 H              1 <1>                0.0000
@<TRIPOS>BOND
    1    1    2 1     
    2    1    9 1     
    3    1   16 1     
    4    1   17 1     
    5    2    3 1     
    6    2   10 1     
    7    2   18 1     
    8    3    4 1     
    9    4    5 1     
   10    4    9 1     
   11    4   19 1     
   12    5    6 1     
   13    5   20 1     
   14    5   21 1     
   15    6    7 1     
   16    6   22 1     
   17    6   23 1     
   18    7    8 1     
   19    7   24 1     
   20    7   25 1     
   21    8    9 1     
   22    8   32 1     
   23    8   33 1     
   24    9   26 1     
   25   10   11 ar    
   26   10   15 ar    
   27   11   12 ar    
   28   11   27 1     
   29   12   13 ar    
   30   12   28 1     
   31   13   14 ar    
   32   13   29 1     
   33   14   15 ar    
   34   14   30 1     
   35   15   31 1     
@<TRIPOS>SUBSTRUCTURE
      1 ****           1
@<TRIPOS>SET
DONOR_HYDROGENS      STATIC     ATOMS    <user>   **** ""
2 32 33
ATOM$RED        STATIC     ATOMS    COLORGROUP SYSTEM
2 32 33
@<TRIPOS>COMMENT
> <Gold.Version>
2022.2.0

> <Gold.Id.Protein>
3pbl|protein|mol2

> <Gold.Protein.RotatedTorsions>
[ 1303 1298 1297 1294 ] final  155.80 input  179.99 | X-H torsion
[ 2461 2456 2455 2452 ] final  -64.13 input   30.03 | X-H torsion
[ 2515 2510 2509 2506 ] final  -64.44 input  -89.99 | X-H torsion
[ 3721 3712 3711 3710 ] final -143.98 input -179.91 | X-H torsion
[ 3841 3832 3831 3830 ] final  -72.35 input -179.91 | X-H torsion
[ 3767 3762 3761 3758 ] final  -96.15 input  -89.99 | X-H torsion
[ 2472 2467 2466 2463 ] final  -39.53 input  -89.97 | X-H torsion

> <Gold.Protein.ActiveResidues>
 VAL82   VAL86   LEU89   PHE106  VAL107  ASP110  VAL111  MET112  CYS114  THR115 
 CYS181  SER182  ILE183  PHE188  VAL189  ILE190  SER192  SER193  SER196  TRP342 
 PHE345  PHE346  HIS349  VAL350  TYR365  THR369  GLY372  TYR373 

> <Gold.Protein.RotatedAtoms>
    4.9110   -9.2247    4.8556 H   0  0  0  0  0  0  0  0  0  0  0  0  # atno 1303 bound_to 1298
    0.3536   -8.6091    7.4110 H   0  0  0  0  0  0  0  0  0  0  0  0  # atno 2461 bound_to 2456
   -3.6383   -5.0697    8.6593 H   0  0  0  0  0  0  0  0  0  0  0  0  # atno 2472 bound_to 2467
    2.8298   -8.5697    4.4040 H   0  0  0  0  0  0  0  0  0  0  0  0  # atno 2515 bound_to 2510
   -3.3129  -16.5407   14.0781 H   0  0  0  0  0  0  0  0  0  0  0  0  # atno 3721 bound_to 3712
   -5.1561  -21.9142   11.2861 H   0  0  0  0  0  0  0  0  0  0  0  0  # atno 3767 bound_to 3762
    1.6904  -19.7121    8.8936 H   0  0  0  0  0  0  0  0  0  0  0  0  # atno 3841 bound_to 3832
    3.6971  -10.2155    4.3959 LP  0  0  0  0  0  0  0  0  0  0  0  0  # atno 4297 bound_to 1298
    3.7538   -8.6811    3.8399 LP  0  0  0  0  0  0  0  0  0  0  0  0  # atno 4298 bound_to 1298
    1.5146   -9.1935    8.3999 LP  0  0  0  0  0  0  0  0  0  0  0  0  # atno 4299 bound_to 2456
    1.8694   -8.0056    7.3371 LP  0  0  0  0  0  0  0  0  0  0  0  0  # atno 4300 bound_to 2456
    2.2938   -8.9888    5.8882 LP  0  0  0  0  0  0  0  0  0  0  0  0  # atno 4301 bound_to 2510
    2.1729   -7.4405    5.3834 LP  0  0  0  0  0  0  0  0  0  0  0  0  # atno 4302 bound_to 2510
   -2.9910  -17.6948   13.0094 LP  0  0  0  0  0  0  0  0  0  0  0  0  # atno 4306 bound_to 3712
   -2.7119  -17.9350   14.6003 LP  0  0  0  0  0  0  0  0  0  0  0  0  # atno 4307 bound_to 3712
    3.0455  -20.3343    8.3000 LP  0  0  0  0  0  0  0  0  0  0  0  0  # atno 4314 bound_to 3832
    2.2312  -21.1005    9.4902 LP  0  0  0  0  0  0  0  0  0  0  0  0  # atno 4315 bound_to 3832
   -3.9090  -22.9665   11.2204 LP  0  0  0  0  0  0  0  0  0  0  0  0  # atno 4318 bound_to 3762
   -5.0624  -22.9941   10.0647 LP  0  0  0  0  0  0  0  0  0  0  0  0  # atno 4319 bound_to 3762
   -5.1128   -5.4448    9.2523 LP  0  0  0  0  0  0  0  0  0  0  0  0  # atno 4320 bound_to 2467
   -4.9657   -4.8791    7.7275 LP  0  0  0  0  0  0  0  0  0  0  0  0  # atno 4321 bound_to 2467

> <Gold.Score>
     Score     S(PLP)   S(hbond)     S(cho)   S(metal)  DE(clash)   DE(tors)     intcor
     47.75     -48.33       0.00       0.00       0.00       0.57       0.00       0.00

> <Gold.PLP.Fitness>
47.7503

> <Gold.PLP.PLP>
-48.3268

> <Gold.PLP.part.hbond>
0.0000

> <Gold.PLP.part.metal>
0.0000

> <Gold.PLP.part.buried>
3.1807

> <Gold.PLP.part.nonpolar>
-52.0519

> <Gold.PLP.part.repulsive>
0.0000

> <Gold.PLP.ligand.clash>
0.5731

> <Gold.PLP.ligand.torsion>
0.0041

> <Gold.PLP.Chemscore.Hbond>
0.0000

> <Gold.PLP.Chemscore.CHOScore>
0.0000

> <Gold.PLP.Chemscore.Metal>
0.0000

> <Gold.PLP.Chemscore.Internal.Correction>
0.0048

