#       Name:                EN300-266730_i001
#       Creating user name   fsindt
#       Creation time:       Wed Mar  1 03:28:40 2023


#       File generated by GOLD software.
#

@<TRIPOS>MOLECULE
EN300-266730_i001
    33    35     1
SMALL
USER_CHARGES


@<TRIPOS>ATOM
      1 C1           0.0770  -1.4092  -1.1319 C.3            1 <1>                0.0000
      2 C2          -0.5856  -1.3887   0.2605 C.3            1 <1>                0.0000
      3 O3           0.3692  -0.8253   1.1815 O.3            1 <1>                0.0000
      4 C4           1.6645  -1.0865   0.6241 C.3            1 <1>                0.0000
      5 C5           2.7549  -0.2481   1.2538 C.3            1 <1>                0.0000
      6 C6           2.5856   1.2290   0.8921 C.3            1 <1>                0.0000
      7 C7           2.5626   1.3451  -0.6364 C.3            1 <1>                0.0000
      8 N8           1.3914   0.6276  -1.1433 N.4            1 <1>                1.0000
      9 C9           1.4934  -0.8133  -0.8823 C.3            1 <1>                0.0000
     10 C10         -1.8275  -0.5358   0.2244 C.ar           1 <1>                0.0000
     11 C11         -3.0711  -1.1299   0.1181 C.ar           1 <1>                0.0000
     12 C12         -4.2103  -0.3476   0.0849 C.ar           1 <1>                0.0000
     13 C13         -4.1059   1.0289   0.1585 C.ar           1 <1>                0.0000
     14 C14         -2.8623   1.6229   0.2657 C.ar           1 <1>                0.0000
     15 C15         -1.7234   0.8404   0.3032 C.ar           1 <1>                0.0000
     16 H16          0.1523  -2.4308  -1.5044 H              1 <1>                0.0000
     17 H17         -0.4820  -0.7867  -1.8305 H              1 <1>                0.0000
     18 H18         -0.8396  -2.4040   0.5650 H              1 <1>                0.0000
     19 H19          1.9034  -2.1416   0.7573 H              1 <1>                0.0000
     20 H20          2.7115  -0.3589   2.3372 H              1 <1>                0.0000
     21 H21          3.7247  -0.5953   0.8975 H              1 <1>                0.0000
     22 H22          1.6486   1.6038   1.3038 H              1 <1>                0.0000
     23 H23          3.4205   1.8041   1.2925 H              1 <1>                0.0000
     24 H24          2.5004   2.3951  -0.9226 H              1 <1>                0.0000
     25 H25          3.4693   0.9039  -1.0504 H              1 <1>                0.0000
     26 H26          2.2616  -1.2900  -1.4912 H              1 <1>                0.0000
     27 H27         -3.1527  -2.2053   0.0606 H              1 <1>                0.0000
     28 H28         -5.1819  -0.8117   0.0012 H              1 <1>                0.0000
     29 H29         -4.9958   1.6401   0.1319 H              1 <1>                0.0000
     30 H30         -2.7807   2.6983   0.3228 H              1 <1>                0.0000
     31 H31         -0.7518   1.3045   0.3870 H              1 <1>                0.0000
     32 H32          0.5633   0.9871  -0.6926 H              1 <1>                0.0000
     33 H33          1.3166   0.7785  -2.1381 H              1 <1>                0.0000
@<TRIPOS>BOND
    1    1    2 1     
    2    1    9 1     
    3    1   16 1     
    4    1   17 1     
    5    2    3 1     
    6    2   10 1     
    7    2   18 1     
    8    3    4 1     
    9    4    5 1     
   10    4    9 1     
   11    4   19 1     
   12    5    6 1     
   13    5   20 1     
   14    5   21 1     
   15    6    7 1     
   16    6   22 1     
   17    6   23 1     
   18    7    8 1     
   19    7   24 1     
   20    7   25 1     
   21    8    9 1     
   22    8   32 1     
   23    8   33 1     
   24    9   26 1     
   25   10   11 ar    
   26   10   15 ar    
   27   11   12 ar    
   28   11   27 1     
   29   12   13 ar    
   30   12   28 1     
   31   13   14 ar    
   32   13   29 1     
   33   14   15 ar    
   34   14   30 1     
   35   15   31 1     
@<TRIPOS>SUBSTRUCTURE
      1 ****           1
@<TRIPOS>SET
DONOR_HYDROGENS      STATIC     ATOMS    <user>   **** ""
2 32 33
ATOM$RED        STATIC     ATOMS    COLORGROUP SYSTEM
2 32 33
