#       Name:                EN300-266730_i001
#       Creating user name   fsindt
#       Creation time:       Wed Mar  1 03:28:42 2023


#       File generated by GOLD software.
#

@<TRIPOS>MOLECULE
EN300-266730_i001|amine_7|mol2|10229|dock5
    33    35     1
SMALL
USER_CHARGES


@<TRIPOS>ATOM
      1 C1           2.3015 -18.1712  13.9851 C.3            1 <1>                0.0000
      2 C2           1.0996 -18.6039  14.8491 C.3            1 <1>                0.0000
      3 O3           0.0822 -17.5932  14.7055 O.3            1 <1>                0.0000
      4 C4           0.7688 -16.3795  14.3706 C.3            1 <1>                0.0000
      5 C5          -0.1541 -15.3158  13.8182 C.3            1 <1>                0.0000
      6 C6          -0.6946 -15.7212  12.4453 C.3            1 <1>                0.0000
      7 C7           0.5006 -15.9985  11.5261 C.3            1 <1>                0.0000
      8 N8           1.2493 -17.1370  12.0616 N.4            1 <1>                1.0000
      9 C9           1.8485 -16.8178  13.3630 C.3            1 <1>                0.0000
     10 C10          0.5743 -19.9318  14.3678 C.ar           1 <1>                0.0000
     11 C11         -0.7260 -20.0361  13.9106 C.ar           1 <1>                0.0000
     12 C12         -1.2080 -21.2541  13.4692 C.ar           1 <1>                0.0000
     13 C13         -0.3893 -22.3680  13.4845 C.ar           1 <1>                0.0000
     14 C14          0.9113 -22.2635  13.9408 C.ar           1 <1>                0.0000
     15 C15          1.3946 -21.0445  14.3783 C.ar           1 <1>                0.0000
     16 H16          3.1867 -18.0296  14.6050 H              1 <1>                0.0000
     17 H17          2.4944 -18.9057  13.2033 H              1 <1>                0.0000
     18 H18          1.4022 -18.6793  15.8936 H              1 <1>                0.0000
     19 H19          1.2655 -15.9940  15.2610 H              1 <1>                0.0000
     20 H20         -0.9890 -15.1742  14.5043 H              1 <1>                0.0000
     21 H21          0.3947 -14.3787  13.7246 H              1 <1>                0.0000
     22 H22         -1.3026 -16.6208  12.5400 H              1 <1>                0.0000
     23 H23         -1.2963 -14.9113  12.0327 H              1 <1>                0.0000
     24 H24          0.1440 -16.2343  10.5234 H              1 <1>                0.0000
     25 H25          1.1458 -15.1207  11.4903 H              1 <1>                0.0000
     26 H26          2.6660 -16.1020  13.2770 H              1 <1>                0.0000
     27 H27         -1.3656 -19.1659  13.8987 H              1 <1>                0.0000
     28 H28         -2.2242 -21.3358  13.1126 H              1 <1>                0.0000
     29 H29         -0.7660 -23.3197  13.1403 H              1 <1>                0.0000
     30 H30          1.5508 -23.1338  13.9532 H              1 <1>                0.0000
     31 H31          2.4108 -20.9629  14.7348 H              1 <1>                0.0000
     32 H32          0.6245 -17.9219  12.1692 H              1 <1>                0.0000
     33 H33          1.9812 -17.3854  11.4131 H              1 <1>                0.0000
@<TRIPOS>BOND
    1    1    2 1     
    2    1    9 1     
    3    1   16 1     
    4    1   17 1     
    5    2    3 1     
    6    2   10 1     
    7    2   18 1     
    8    3    4 1     
    9    4    5 1     
   10    4    9 1     
   11    4   19 1     
   12    5    6 1     
   13    5   20 1     
   14    5   21 1     
   15    6    7 1     
   16    6   22 1     
   17    6   23 1     
   18    7    8 1     
   19    7   24 1     
   20    7   25 1     
   21    8    9 1     
   22    8   32 1     
   23    8   33 1     
   24    9   26 1     
   25   10   11 ar    
   26   10   15 ar    
   27   11   12 ar    
   28   11   27 1     
   29   12   13 ar    
   30   12   28 1     
   31   13   14 ar    
   32   13   29 1     
   33   14   15 ar    
   34   14   30 1     
   35   15   31 1     
@<TRIPOS>SUBSTRUCTURE
      1 ****           1
@<TRIPOS>SET
DONOR_HYDROGENS      STATIC     ATOMS    <user>   **** ""
2 32 33
ATOM$RED        STATIC     ATOMS    COLORGROUP SYSTEM
2 32 33
@<TRIPOS>COMMENT
> <Gold.Version>
2022.2.0

> <Gold.Id.Protein>
3pbl|protein|mol2

> <Gold.Protein.RotatedTorsions>
[ 1303 1298 1297 1294 ] final -112.61 input  179.99 | X-H torsion
[ 2461 2456 2455 2452 ] final  118.30 input   30.03 | X-H torsion
[ 2515 2510 2509 2506 ] final  155.98 input  -89.99 | X-H torsion
[ 3721 3712 3711 3710 ] final   49.26 input -179.91 | X-H torsion
[ 3841 3832 3831 3830 ] final  151.28 input -179.91 | X-H torsion
[ 3767 3762 3761 3758 ] final   90.20 input  -89.99 | X-H torsion
[ 2472 2467 2466 2463 ] final  135.78 input  -89.97 | X-H torsion

> <Gold.Protein.ActiveResidues>
 VAL82   VAL86   LEU89   PHE106  VAL107  ASP110  VAL111  MET112  CYS114  THR115 
 CYS181  SER182  ILE183  PHE188  VAL189  ILE190  SER192  SER193  SER196  TRP342 
 PHE345  PHE346  HIS349  VAL350  TYR365  THR369  GLY372  TYR373 

> <Gold.Protein.RotatedAtoms>
    4.1313   -8.4925    4.0297 H   0  0  0  0  0  0  0  0  0  0  0  0  # atno 1303 bound_to 1298
    2.1288   -8.6254    8.0469 H   0  0  0  0  0  0  0  0  0  0  0  0  # atno 2461 bound_to 2456
   -5.4961   -5.1667    8.3615 H   0  0  0  0  0  0  0  0  0  0  0  0  # atno 2472 bound_to 2467
    2.1749   -8.7321    6.0392 H   0  0  0  0  0  0  0  0  0  0  0  0  # atno 2515 bound_to 2510
   -2.5406  -17.9747   13.5226 H   0  0  0  0  0  0  0  0  0  0  0  0  # atno 3721 bound_to 3712
   -4.1907  -23.3291   10.5038 H   0  0  0  0  0  0  0  0  0  0  0  0  # atno 3767 bound_to 3762
    3.1206  -20.3909    8.6158 H   0  0  0  0  0  0  0  0  0  0  0  0  # atno 3841 bound_to 3832
    4.8006   -9.6644    4.9489 LP  0  0  0  0  0  0  0  0  0  0  0  0  # atno 4297 bound_to 1298
    3.4302   -9.9648    4.1132 LP  0  0  0  0  0  0  0  0  0  0  0  0  # atno 4298 bound_to 1298
    1.0147   -7.9977    7.0309 LP  0  0  0  0  0  0  0  0  0  0  0  0  # atno 4299 bound_to 2456
    0.5946   -9.1850    8.0704 LP  0  0  0  0  0  0  0  0  0  0  0  0  # atno 4300 bound_to 2456
    2.2917   -7.4111    5.0868 LP  0  0  0  0  0  0  0  0  0  0  0  0  # atno 4301 bound_to 2510
    2.8302   -8.8558    4.5489 LP  0  0  0  0  0  0  0  0  0  0  0  0  # atno 4302 bound_to 2510
   -3.0733  -17.2640   14.8602 LP  0  0  0  0  0  0  0  0  0  0  0  0  # atno 4306 bound_to 3712
   -3.5212  -16.7102   13.3907 LP  0  0  0  0  0  0  0  0  0  0  0  0  # atno 4307 bound_to 3712
    1.9451  -20.9647    9.5458 LP  0  0  0  0  0  0  0  0  0  0  0  0  # atno 4314 bound_to 3832
    1.6795  -19.6861    8.5654 LP  0  0  0  0  0  0  0  0  0  0  0  0  # atno 4315 bound_to 3832
   -5.4986  -22.3549   10.4182 LP  0  0  0  0  0  0  0  0  0  0  0  0  # atno 4318 bound_to 3762
   -4.4379  -22.1913   11.6489 LP  0  0  0  0  0  0  0  0  0  0  0  0  # atno 4319 bound_to 3762
   -3.9710   -4.8271    7.8870 LP  0  0  0  0  0  0  0  0  0  0  0  0  # atno 4320 bound_to 2467
   -4.2500   -5.3997    9.3906 LP  0  0  0  0  0  0  0  0  0  0  0  0  # atno 4321 bound_to 2467

> <Gold.Score>
     Score     S(PLP)   S(hbond)     S(cho)   S(metal)  DE(clash)   DE(tors)     intcor
     43.15     -37.15       2.00       0.00       0.00       0.00       0.00       0.00

> <Gold.PLP.Fitness>
43.1496

> <Gold.PLP.PLP>
-37.1511

> <Gold.PLP.part.hbond>
-1.0000

> <Gold.PLP.part.metal>
0.0000

> <Gold.PLP.part.buried>
-2.5221

> <Gold.PLP.part.nonpolar>
-33.8985

> <Gold.PLP.part.repulsive>
0.0270

> <Gold.PLP.ligand.clash>
0.0000

> <Gold.PLP.ligand.torsion>
0.0032

> <Gold.PLP.Chemscore.Hbond>
2.0000

> <Gold.PLP.Chemscore.CHOScore>
0.0000

> <Gold.PLP.Chemscore.Metal>
0.0000

> <Gold.Chemscore.Hbonds>
donor molecule, donor type, donor heavy atom, donor atom, acceptor molecule, acceptor atom, score
      L1  H     8    33       P1  1227  2.00

> <Gold.PLP.Chemscore.Internal.Correction>
0.0048

