#       Name:                EN300-266730_i001
#       Creating user name   fsindt
#       Creation time:       Wed Mar  1 03:28:45 2023


#       File generated by GOLD software.
#

@<TRIPOS>MOLECULE
EN300-266730_i001|amine_7|mol2|10229|dock14
    33    35     1
SMALL
USER_CHARGES


@<TRIPOS>ATOM
      1 C1          -0.4315 -15.4114  13.1929 C.3            1 <1>                0.0000
      2 C2           0.8281 -15.2518  12.3177 C.3            1 <1>                0.0000
      3 O3           1.7940 -16.2185  12.7759 O.3            1 <1>                0.0000
      4 C4           1.4806 -16.4756  14.1516 C.3            1 <1>                0.0000
      5 C5           2.1432 -17.7283  14.6807 C.3            1 <1>                0.0000
      6 C6           1.5558 -18.9773  14.0203 C.3            1 <1>                0.0000
      7 C7           0.0403 -18.9703  14.2520 C.3            1 <1>                0.0000
      8 N8          -0.5313 -17.8025  13.5789 N.4            1 <1>                1.0000
      9 C9          -0.0576 -16.5520  14.1843 C.3            1 <1>                0.0000
     10 C10          0.4855 -15.5146  10.8738 C.ar           1 <1>                0.0000
     11 C11          0.7605 -14.5594   9.9133 C.ar           1 <1>                0.0000
     12 C12          0.4462 -14.8003   8.5889 C.ar           1 <1>                0.0000
     13 C13         -0.1428 -15.9969   8.2250 C.ar           1 <1>                0.0000
     14 C14         -0.4170 -16.9525   9.1855 C.ar           1 <1>                0.0000
     15 C15         -0.0988 -16.7132  10.5092 C.ar           1 <1>                0.0000
     16 H16         -0.6408 -14.4883  13.7335 H              1 <1>                0.0000
     17 H17         -1.2870 -15.7006  12.5825 H              1 <1>                0.0000
     18 H18          1.2307 -14.2449  12.4277 H              1 <1>                0.0000
     19 H19          1.7955 -15.6234  14.7538 H              1 <1>                0.0000
     20 H20          3.2123 -17.6829  14.4740 H              1 <1>                0.0000
     21 H21          1.9896 -17.7870  15.7582 H              1 <1>                0.0000
     22 H22          1.7646 -18.9609  12.9506 H              1 <1>                0.0000
     23 H23          1.9925 -19.8703  14.4676 H              1 <1>                0.0000
     24 H24         -0.3969 -19.8800  13.8405 H              1 <1>                0.0000
     25 H25         -0.1660 -18.9137  15.3209 H              1 <1>                0.0000
     26 H26         -0.4705 -16.3930  15.1805 H              1 <1>                0.0000
     27 H27          1.2207 -13.6245  10.1976 H              1 <1>                0.0000
     28 H28          0.6604 -14.0538   7.8385 H              1 <1>                0.0000
     29 H29         -0.3890 -16.1849   7.1905 H              1 <1>                0.0000
     30 H30         -0.8775 -17.8871   8.9012 H              1 <1>                0.0000
     31 H31         -0.3129 -17.4599  11.2596 H              1 <1>                0.0000
     32 H32         -0.2657 -17.8196  12.6056 H              1 <1>                0.0000
     33 H33         -1.5372 -17.8418  13.6464 H              1 <1>                0.0000
@<TRIPOS>BOND
    1    1    2 1     
    2    1    9 1     
    3    1   16 1     
    4    1   17 1     
    5    2    3 1     
    6    2   10 1     
    7    2   18 1     
    8    3    4 1     
    9    4    5 1     
   10    4    9 1     
   11    4   19 1     
   12    5    6 1     
   13    5   20 1     
   14    5   21 1     
   15    6    7 1     
   16    6   22 1     
   17    6   23 1     
   18    7    8 1     
   19    7   24 1     
   20    7   25 1     
   21    8    9 1     
   22    8   32 1     
   23    8   33 1     
   24    9   26 1     
   25   10   11 ar    
   26   10   15 ar    
   27   11   12 ar    
   28   11   27 1     
   29   12   13 ar    
   30   12   28 1     
   31   13   14 ar    
   32   13   29 1     
   33   14   15 ar    
   34   14   30 1     
   35   15   31 1     
@<TRIPOS>SUBSTRUCTURE
      1 ****           1
@<TRIPOS>SET
DONOR_HYDROGENS      STATIC     ATOMS    <user>   **** ""
2 32 33
ATOM$RED        STATIC     ATOMS    COLORGROUP SYSTEM
2 32 33
@<TRIPOS>COMMENT
> <Gold.Version>
2022.2.0

> <Gold.Id.Protein>
3pbl|protein|mol2

> <Gold.Protein.RotatedTorsions>
[ 1303 1298 1297 1294 ] final  147.78 input  179.99 | X-H torsion
[ 2461 2456 2455 2452 ] final   49.90 input   30.03 | X-H torsion
[ 2515 2510 2509 2506 ] final   -1.77 input  -89.99 | X-H torsion
[ 3721 3712 3711 3710 ] final -143.61 input -179.91 | X-H torsion
[ 3841 3832 3831 3830 ] final -167.32 input -179.91 | X-H torsion
[ 3767 3762 3761 3758 ] final -144.69 input  -89.99 | X-H torsion
[ 2472 2467 2466 2463 ] final   75.81 input  -89.97 | X-H torsion

> <Gold.Protein.ActiveResidues>
 VAL82   VAL86   LEU89   PHE106  VAL107  ASP110  VAL111  MET112  CYS114  THR115 
 CYS181  SER182  ILE183  PHE188  VAL189  ILE190  SER192  SER193  SER196  TRP342 
 PHE345  PHE346  HIS349  VAL350  TYR365  THR369  GLY372  TYR373 

> <Gold.Protein.RotatedAtoms>
    4.8987   -9.3499    4.8956 H   0  0  0  0  0  0  0  0  0  0  0  0  # atno 1303 bound_to 1298
    1.7964   -7.9735    7.2797 H   0  0  0  0  0  0  0  0  0  0  0  0  # atno 2461 bound_to 2456
   -4.8952   -4.8630    7.7022 H   0  0  0  0  0  0  0  0  0  0  0  0  # atno 2472 bound_to 2467
    2.5529   -7.6480    4.5892 H   0  0  0  0  0  0  0  0  0  0  0  0  # atno 2515 bound_to 2510
   -3.3119  -16.5415   14.0835 H   0  0  0  0  0  0  0  0  0  0  0  0  # atno 3721 bound_to 3712
   -4.5058  -22.1423   11.6411 H   0  0  0  0  0  0  0  0  0  0  0  0  # atno 3767 bound_to 3762
    2.8343  -19.9120    8.3643 H   0  0  0  0  0  0  0  0  0  0  0  0  # atno 3841 bound_to 3832
    3.6079  -10.1634    4.3137 LP  0  0  0  0  0  0  0  0  0  0  0  0  # atno 4297 bound_to 1298
    3.8553   -8.6080    3.8820 LP  0  0  0  0  0  0  0  0  0  0  0  0  # atno 4298 bound_to 1298
    0.3374   -8.6804    7.4765 LP  0  0  0  0  0  0  0  0  0  0  0  0  # atno 4299 bound_to 2456
    1.6041   -9.1540    8.3918 LP  0  0  0  0  0  0  0  0  0  0  0  0  # atno 4300 bound_to 2456
    2.7055   -9.2134    5.0272 LP  0  0  0  0  0  0  0  0  0  0  0  0  # atno 4301 bound_to 2510
    2.0383   -8.1381    6.0592 LP  0  0  0  0  0  0  0  0  0  0  0  0  # atno 4302 bound_to 2510
   -2.9940  -17.6898   13.0074 LP  0  0  0  0  0  0  0  0  0  0  0  0  # atno 4306 bound_to 3712
   -2.7100  -17.9390   14.5960 LP  0  0  0  0  0  0  0  0  0  0  0  0  # atno 4307 bound_to 3712
    2.5596  -21.1579    9.3382 LP  0  0  0  0  0  0  0  0  0  0  0  0  # atno 4314 bound_to 3832
    1.3957  -20.0460    9.0634 LP  0  0  0  0  0  0  0  0  0  0  0  0  # atno 4315 bound_to 3832
   -4.1387  -23.3182   10.5690 LP  0  0  0  0  0  0  0  0  0  0  0  0  # atno 4318 bound_to 3762
   -5.4828  -22.4144   10.3612 LP  0  0  0  0  0  0  0  0  0  0  0  0  # atno 4319 bound_to 3762
   -3.6484   -5.0957    8.7307 LP  0  0  0  0  0  0  0  0  0  0  0  0  # atno 4320 bound_to 2467
   -5.1734   -5.4348    9.2061 LP  0  0  0  0  0  0  0  0  0  0  0  0  # atno 4321 bound_to 2467

> <Gold.Score>
     Score     S(PLP)   S(hbond)     S(cho)   S(metal)  DE(clash)   DE(tors)     intcor
     41.51     -38.55       1.00       0.00       0.00       0.00       0.02       0.00

> <Gold.PLP.Fitness>
41.5129

> <Gold.PLP.PLP>
-38.5490

> <Gold.PLP.part.hbond>
-1.0000

> <Gold.PLP.part.metal>
0.0000

> <Gold.PLP.part.buried>
-1.1428

> <Gold.PLP.part.nonpolar>
-37.1079

> <Gold.PLP.part.repulsive>
0.0779

> <Gold.PLP.ligand.clash>
0.0000

> <Gold.PLP.ligand.torsion>
0.0205

> <Gold.PLP.Chemscore.Hbond>
1.0000

> <Gold.PLP.Chemscore.CHOScore>
0.0000

> <Gold.PLP.Chemscore.Metal>
0.0000

> <Gold.Chemscore.Hbonds>
donor molecule, donor type, donor heavy atom, donor atom, acceptor molecule, acceptor atom, score
      L1  H     8    33       P1  3712  1.00

> <Gold.PLP.Chemscore.Internal.Correction>
0.0048

