#       Name:                EN300-266730_i001
#       Creating user name   fsindt
#       Creation time:       Wed Mar  1 03:28:46 2023


#       File generated by GOLD software.
#

@<TRIPOS>MOLECULE
EN300-266730_i001|amine_7|mol2|10229|dock17
    33    35     1
SMALL
USER_CHARGES


@<TRIPOS>ATOM
      1 C1           0.6951 -11.8447  10.3666 C.3            1 <1>                0.0000
      2 C2          -0.1674 -13.1231  10.3749 C.3            1 <1>                0.0000
      3 O3          -1.5438 -12.7110  10.4889 O.3            1 <1>                0.0000
      4 C4          -1.5263 -11.4359  11.1450 C.3            1 <1>                0.0000
      5 C5          -2.8346 -10.6882  11.0108 C.3            1 <1>                0.0000
      6 C6          -3.0703 -10.2560   9.5621 C.3            1 <1>                0.0000
      7 C7          -1.8662  -9.4203   9.1127 C.3            1 <1>                0.0000
      8 N8          -0.6731 -10.2686   9.1336 N.4            1 <1>                1.0000
      9 C9          -0.3421 -10.6914  10.4998 C.3            1 <1>                0.0000
     10 C10          0.0344 -13.8856   9.0908 C.ar           1 <1>                0.0000
     11 C11         -0.1072 -13.2425   7.8755 C.ar           1 <1>                0.0000
     12 C12          0.0778 -13.9419   6.6976 C.ar           1 <1>                0.0000
     13 C13          0.4050 -15.2845   6.7351 C.ar           1 <1>                0.0000
     14 C14          0.5475 -15.9274   7.9505 C.ar           1 <1>                0.0000
     15 C15          0.3666 -15.2270   9.1284 C.ar           1 <1>                0.0000
     16 H16          1.3815 -11.8412  11.2133 H              1 <1>                0.0000
     17 H17          1.2433 -11.7595   9.4284 H              1 <1>                0.0000
     18 H18          0.1041 -13.7478  11.2258 H              1 <1>                0.0000
     19 H19         -1.3055 -11.5823  12.2023 H              1 <1>                0.0000
     20 H20         -3.6515 -11.3357  11.3290 H              1 <1>                0.0000
     21 H21         -2.8094  -9.8047  11.6487 H              1 <1>                0.0000
     22 H22         -3.1654 -11.1360   8.9262 H              1 <1>                0.0000
     23 H23         -3.9784  -9.6563   9.5000 H              1 <1>                0.0000
     24 H24         -2.0345  -9.0507   8.1012 H              1 <1>                0.0000
     25 H25         -1.7295  -8.5801   9.7936 H              1 <1>                0.0000
     26 H26          0.0252  -9.8662  11.1099 H              1 <1>                0.0000
     27 H27         -0.3629 -12.1935   7.8461 H              1 <1>                0.0000
     28 H28         -0.0335 -13.4396   5.7480 H              1 <1>                0.0000
     29 H29          0.5489 -15.8311   5.8149 H              1 <1>                0.0000
     30 H30          0.8027 -16.9764   7.9798 H              1 <1>                0.0000
     31 H31          0.4780 -15.7293  10.0780 H              1 <1>                0.0000
     32 H32         -0.8392 -11.0861   8.5660 H              1 <1>                0.0000
     33 H33          0.1050  -9.7537   8.7496 H              1 <1>                0.0000
@<TRIPOS>BOND
    1    1    2 1     
    2    1    9 1     
    3    1   16 1     
    4    1   17 1     
    5    2    3 1     
    6    2   10 1     
    7    2   18 1     
    8    3    4 1     
    9    4    5 1     
   10    4    9 1     
   11    4   19 1     
   12    5    6 1     
   13    5   20 1     
   14    5   21 1     
   15    6    7 1     
   16    6   22 1     
   17    6   23 1     
   18    7    8 1     
   19    7   24 1     
   20    7   25 1     
   21    8    9 1     
   22    8   32 1     
   23    8   33 1     
   24    9   26 1     
   25   10   11 ar    
   26   10   15 ar    
   27   11   12 ar    
   28   11   27 1     
   29   12   13 ar    
   30   12   28 1     
   31   13   14 ar    
   32   13   29 1     
   33   14   15 ar    
   34   14   30 1     
   35   15   31 1     
@<TRIPOS>SUBSTRUCTURE
      1 ****           1
@<TRIPOS>SET
DONOR_HYDROGENS      STATIC     ATOMS    <user>   **** ""
2 32 33
ATOM$RED        STATIC     ATOMS    COLORGROUP SYSTEM
2 32 33
@<TRIPOS>COMMENT
> <Gold.Version>
2022.2.0

> <Gold.Id.Protein>
3pbl|protein|mol2

> <Gold.Protein.RotatedTorsions>
[ 1303 1298 1297 1294 ] final  108.73 input  179.99 | X-H torsion
[ 2461 2456 2455 2452 ] final   52.51 input   30.03 | X-H torsion
[ 2515 2510 2509 2506 ] final  -45.00 input  -89.99 | X-H torsion
[ 3721 3712 3711 3710 ] final   54.92 input -179.91 | X-H torsion
[ 3841 3832 3831 3830 ] final -114.13 input -179.91 | X-H torsion
[ 3767 3762 3761 3758 ] final  -25.33 input  -89.99 | X-H torsion
[ 2472 2467 2466 2463 ] final   78.75 input  -89.97 | X-H torsion

> <Gold.Protein.ActiveResidues>
 VAL82   VAL86   LEU89   PHE106  VAL107  ASP110  VAL111  MET112  CYS114  THR115 
 CYS181  SER182  ILE183  PHE188  VAL189  ILE190  SER192  SER193  SER196  TRP342 
 PHE345  PHE346  HIS349  VAL350  TYR365  THR369  GLY372  TYR373 

> <Gold.Protein.RotatedAtoms>
    4.6350   -9.9207    4.9339 H   0  0  0  0  0  0  0  0  0  0  0  0  # atno 1303 bound_to 1298
    1.8293   -7.9866    7.3043 H   0  0  0  0  0  0  0  0  0  0  0  0  # atno 2461 bound_to 2456
   -4.9399   -4.8734    7.7173 H   0  0  0  0  0  0  0  0  0  0  0  0  # atno 2472 bound_to 2467
    2.7839   -8.2589    4.3539 H   0  0  0  0  0  0  0  0  0  0  0  0  # atno 2515 bound_to 2510
   -2.5658  -17.9423   13.4475 H   0  0  0  0  0  0  0  0  0  0  0  0  # atno 3721 bound_to 3712
   -5.4848  -22.4064   10.3675 H   0  0  0  0  0  0  0  0  0  0  0  0  # atno 3767 bound_to 3762
    2.1450  -19.5829    8.4965 H   0  0  0  0  0  0  0  0  0  0  0  0  # atno 3841 bound_to 3832
    3.3429   -9.7172    3.9564 LP  0  0  0  0  0  0  0  0  0  0  0  0  # atno 4297 bound_to 1298
    4.3841   -8.4832    4.2011 LP  0  0  0  0  0  0  0  0  0  0  0  0  # atno 4298 bound_to 1298
    0.3434   -8.6493    7.4475 LP  0  0  0  0  0  0  0  0  0  0  0  0  # atno 4299 bound_to 2456
    1.5653   -9.1721    8.3963 LP  0  0  0  0  0  0  0  0  0  0  0  0  # atno 4300 bound_to 2456
    2.4279   -9.1684    5.6623 LP  0  0  0  0  0  0  0  0  0  0  0  0  # atno 4301 bound_to 2510
    2.0848   -7.5719    5.6596 LP  0  0  0  0  0  0  0  0  0  0  0  0  # atno 4302 bound_to 2510
   -3.0259  -17.3458   14.8654 LP  0  0  0  0  0  0  0  0  0  0  0  0  # atno 4306 bound_to 3712
   -3.5394  -16.6658   13.4723 LP  0  0  0  0  0  0  0  0  0  0  0  0  # atno 4307 bound_to 3712
    3.0922  -20.8559    8.7381 LP  0  0  0  0  0  0  0  0  0  0  0  0  # atno 4314 bound_to 3832
    1.6593  -20.7281    9.5108 LP  0  0  0  0  0  0  0  0  0  0  0  0  # atno 4315 bound_to 3832
   -4.4977  -22.1487   11.6426 LP  0  0  0  0  0  0  0  0  0  0  0  0  # atno 4318 bound_to 3762
   -4.1451  -23.3199   10.5608 LP  0  0  0  0  0  0  0  0  0  0  0  0  # atno 4319 bound_to 3762
   -3.6414   -5.0788    8.6859 LP  0  0  0  0  0  0  0  0  0  0  0  0  # atno 4320 bound_to 2467
   -5.1357   -5.4413    9.2357 LP  0  0  0  0  0  0  0  0  0  0  0  0  # atno 4321 bound_to 2467

> <Gold.Score>
     Score     S(PLP)   S(hbond)     S(cho)   S(metal)  DE(clash)   DE(tors)     intcor
     43.84     -41.92       0.70       0.00       0.00       0.00       0.10       0.00

> <Gold.PLP.Fitness>
43.8369

> <Gold.PLP.PLP>
-41.9225

> <Gold.PLP.part.hbond>
-1.0000

> <Gold.PLP.part.metal>
0.0000

> <Gold.PLP.part.buried>
2.4659

> <Gold.PLP.part.nonpolar>
-46.6525

> <Gold.PLP.part.repulsive>
0.0867

> <Gold.PLP.ligand.clash>
0.0000

> <Gold.PLP.ligand.torsion>
0.0952

> <Gold.PLP.Chemscore.Hbond>
0.7000

> <Gold.PLP.Chemscore.CHOScore>
0.0000

> <Gold.PLP.Chemscore.Metal>
0.0000

> <Gold.Chemscore.Hbonds>
donor molecule, donor type, donor heavy atom, donor atom, acceptor molecule, acceptor atom, score
      L1  H     8    33       P1  2456  0.70

> <Gold.PLP.Chemscore.Internal.Correction>
0.0048

