#       Name:                EN300-266730_i001
#       Creating user name   fsindt
#       Creation time:       Wed Mar  1 03:28:44 2023


#       File generated by GOLD software.
#

@<TRIPOS>MOLECULE
EN300-266730_i001|amine_7|mol2|10229|dock12
    33    35     1
SMALL
USER_CHARGES


@<TRIPOS>ATOM
      1 C1           1.2400 -12.8244  10.1791 C.3            1 <1>                0.0000
      2 C2           0.6213 -11.8143   9.1916 C.3            1 <1>                0.0000
      3 O3           0.3755 -12.5168   7.9574 O.3            1 <1>                0.0000
      4 C4           1.3131 -13.6014   7.9211 C.3            1 <1>                0.0000
      5 C5           0.9543 -14.6540   6.8956 C.3            1 <1>                0.0000
      6 C6          -0.3206 -15.3976   7.2994 C.3            1 <1>                0.0000
      7 C7          -0.1046 -15.9878   8.6977 C.3            1 <1>                0.0000
      8 N8           0.0866 -14.8888   9.6459 N.4            1 <1>                1.0000
      9 C9           1.3210 -14.1468   9.3618 C.3            1 <1>                0.0000
     10 C10         -0.6756 -11.2840   9.7464 C.ar           1 <1>                0.0000
     11 C11         -1.1296 -11.7185  10.9776 C.ar           1 <1>                0.0000
     12 C12         -2.3193 -11.2321  11.4866 C.ar           1 <1>                0.0000
     13 C13         -3.0548 -10.3109  10.7645 C.ar           1 <1>                0.0000
     14 C14         -2.6002  -9.8758   9.5337 C.ar           1 <1>                0.0000
     15 C15         -1.4084 -10.3589   9.0266 C.ar           1 <1>                0.0000
     16 H16          2.2357 -12.5012  10.4829 H              1 <1>                0.0000
     17 H17          0.5962 -12.9516  11.0494 H              1 <1>                0.0000
     18 H18          1.3161 -10.9925   9.0182 H              1 <1>                0.0000
     19 H19          2.3045 -13.2078   7.6970 H              1 <1>                0.0000
     20 H20          0.7985 -14.1744   5.9293 H              1 <1>                0.0000
     21 H21          1.7741 -15.3674   6.8125 H              1 <1>                0.0000
     22 H22         -1.1610 -14.7039   7.3185 H              1 <1>                0.0000
     23 H23         -0.5202 -16.1992   6.5882 H              1 <1>                0.0000
     24 H24         -0.9780 -16.5725   8.9869 H              1 <1>                0.0000
     25 H25          0.7797 -16.6250   8.6932 H              1 <1>                0.0000
     26 H26          2.2142 -14.7275   9.5921 H              1 <1>                0.0000
     27 H27         -0.5551 -12.4382  11.5418 H              1 <1>                0.0000
     28 H28         -2.6744 -11.5720  12.4483 H              1 <1>                0.0000
     29 H29         -3.9845  -9.9314  11.1618 H              1 <1>                0.0000
     30 H30         -3.1750  -9.1563   8.9693 H              1 <1>                0.0000
     31 H31         -1.0533 -10.0189   8.0650 H              1 <1>                0.0000
     32 H32         -0.6991 -14.2587   9.5840 H              1 <1>                0.0000
     33 H33          0.1348 -15.2640  10.5812 H              1 <1>                0.0000
@<TRIPOS>BOND
    1    1    2 1     
    2    1    9 1     
    3    1   16 1     
    4    1   17 1     
    5    2    3 1     
    6    2   10 1     
    7    2   18 1     
    8    3    4 1     
    9    4    5 1     
   10    4    9 1     
   11    4   19 1     
   12    5    6 1     
   13    5   20 1     
   14    5   21 1     
   15    6    7 1     
   16    6   22 1     
   17    6   23 1     
   18    7    8 1     
   19    7   24 1     
   20    7   25 1     
   21    8    9 1     
   22    8   32 1     
   23    8   33 1     
   24    9   26 1     
   25   10   11 ar    
   26   10   15 ar    
   27   11   12 ar    
   28   11   27 1     
   29   12   13 ar    
   30   12   28 1     
   31   13   14 ar    
   32   13   29 1     
   33   14   15 ar    
   34   14   30 1     
   35   15   31 1     
@<TRIPOS>SUBSTRUCTURE
      1 ****           1
@<TRIPOS>SET
DONOR_HYDROGENS      STATIC     ATOMS    <user>   **** ""
2 32 33
ATOM$RED        STATIC     ATOMS    COLORGROUP SYSTEM
2 32 33
@<TRIPOS>COMMENT
> <Gold.Version>
2022.2.0

> <Gold.Id.Protein>
3pbl|protein|mol2

> <Gold.Protein.RotatedTorsions>
[ 1303 1298 1297 1294 ] final  -41.81 input  179.99 | X-H torsion
[ 2461 2456 2455 2452 ] final   -9.57 input   30.03 | X-H torsion
[ 2515 2510 2509 2506 ] final  -35.33 input  -89.99 | X-H torsion
[ 3721 3712 3711 3710 ] final   11.23 input -179.91 | X-H torsion
[ 3841 3832 3831 3830 ] final   36.29 input -179.91 | X-H torsion
[ 3767 3762 3761 3758 ] final  164.25 input  -89.99 | X-H torsion
[ 2472 2467 2466 2463 ] final   78.79 input  -89.97 | X-H torsion

> <Gold.Protein.ActiveResidues>
 VAL82   VAL86   LEU89   PHE106  VAL107  ASP110  VAL111  MET112  CYS114  THR115 
 CYS181  SER182  ILE183  PHE188  VAL189  ILE190  SER192  SER193  SER196  TRP342 
 PHE345  PHE346  HIS349  VAL350  TYR365  THR369  GLY372  TYR373 

> <Gold.Protein.RotatedAtoms>
    3.3771   -9.2476    3.7985 H   0  0  0  0  0  0  0  0  0  0  0  0  # atno 1303 bound_to 1298
    0.8955   -8.0475    7.0391 H   0  0  0  0  0  0  0  0  0  0  0  0  # atno 2461 bound_to 2456
   -4.9404   -4.8735    7.7175 H   0  0  0  0  0  0  0  0  0  0  0  0  # atno 2472 bound_to 2467
    2.7456   -8.1051    4.3660 H   0  0  0  0  0  0  0  0  0  0  0  0  # atno 2515 bound_to 2510
   -2.4714  -18.0086   14.0818 H   0  0  0  0  0  0  0  0  0  0  0  0  # atno 3721 bound_to 3712
   -3.9776  -22.7274   11.4432 H   0  0  0  0  0  0  0  0  0  0  0  0  # atno 3767 bound_to 3762
    2.1483  -20.8310    9.6120 H   0  0  0  0  0  0  0  0  0  0  0  0  # atno 3841 bound_to 3832
    4.7269   -8.6667    4.5105 LP  0  0  0  0  0  0  0  0  0  0  0  0  # atno 4297 bound_to 1298
    4.2585  -10.2071    4.7828 LP  0  0  0  0  0  0  0  0  0  0  0  0  # atno 4298 bound_to 1298
    0.6887   -9.2292    8.1473 LP  0  0  0  0  0  0  0  0  0  0  0  0  # atno 4299 bound_to 2456
    2.1534   -8.5314    7.9615 LP  0  0  0  0  0  0  0  0  0  0  0  0  # atno 4300 bound_to 2456
    2.4958   -9.2232    5.5293 LP  0  0  0  0  0  0  0  0  0  0  0  0  # atno 4301 bound_to 2510
    2.0551   -7.6709    5.7804 LP  0  0  0  0  0  0  0  0  0  0  0  0  # atno 4302 bound_to 2510
   -3.3720  -16.7835   14.5974 LP  0  0  0  0  0  0  0  0  0  0  0  0  # atno 4306 bound_to 3712
   -3.3024  -17.1516   13.0080 LP  0  0  0  0  0  0  0  0  0  0  0  0  # atno 4307 bound_to 3712
    1.6566  -19.6964    8.5888 LP  0  0  0  0  0  0  0  0  0  0  0  0  # atno 4314 bound_to 3832
    3.0911  -20.4459    8.3716 LP  0  0  0  0  0  0  0  0  0  0  0  0  # atno 4315 bound_to 3832
   -4.7890  -23.1828   10.1012 LP  0  0  0  0  0  0  0  0  0  0  0  0  # atno 4318 bound_to 3762
   -5.3604  -21.9650   11.0269 LP  0  0  0  0  0  0  0  0  0  0  0  0  # atno 4319 bound_to 3762
   -3.6413   -5.0786    8.6854 LP  0  0  0  0  0  0  0  0  0  0  0  0  # atno 4320 bound_to 2467
   -5.1352   -5.4414    9.2361 LP  0  0  0  0  0  0  0  0  0  0  0  0  # atno 4321 bound_to 2467

> <Gold.Score>
     Score     S(PLP)   S(hbond)     S(cho)   S(metal)  DE(clash)   DE(tors)     intcor
     43.34     -43.92       0.00       0.00       0.00       0.57       0.00       0.00

> <Gold.PLP.Fitness>
43.3408

> <Gold.PLP.PLP>
-43.9184

> <Gold.PLP.part.hbond>
0.0000

> <Gold.PLP.part.metal>
0.0000

> <Gold.PLP.part.buried>
-4.3814

> <Gold.PLP.part.nonpolar>
-41.5555

> <Gold.PLP.part.repulsive>
0.0000

> <Gold.PLP.ligand.clash>
0.5734

> <Gold.PLP.ligand.torsion>
0.0045

> <Gold.PLP.Chemscore.Hbond>
0.0000

> <Gold.PLP.Chemscore.CHOScore>
0.0000

> <Gold.PLP.Chemscore.Metal>
0.0000

> <Gold.PLP.Chemscore.Internal.Correction>
0.0048

