#       Name:                EN300-266730_i001
#       Creating user name   fsindt
#       Creation time:       Wed Mar  1 03:28:45 2023


#       File generated by GOLD software.
#

@<TRIPOS>MOLECULE
EN300-266730_i001|amine_7|mol2|10229|dock16
    33    35     1
SMALL
USER_CHARGES


@<TRIPOS>ATOM
      1 C1          -0.4004 -16.8652  11.2297 C.3            1 <1>                0.0000
      2 C2          -0.8916 -15.5762  11.9190 C.3            1 <1>                0.0000
      3 O3          -0.3008 -15.5408  13.2332 O.3            1 <1>                0.0000
      4 C4          -0.0399 -16.9048  13.5911 C.3            1 <1>                0.0000
      5 C5           0.9123 -17.0337  14.7595 C.3            1 <1>                0.0000
      6 C6           2.3182 -16.5707  14.3717 C.3            1 <1>                0.0000
      7 C7           2.7683 -17.3849  13.1531 C.3            1 <1>                0.0000
      8 N8           1.8769 -17.0819  12.0319 N.4            1 <1>                1.0000
      9 C9           0.5080 -17.5398  12.2990 C.3            1 <1>                0.0000
     10 C10         -0.4518 -14.3720  11.1269 C.ar           1 <1>                0.0000
     11 C11         -1.0256 -13.1380  11.3693 C.ar           1 <1>                0.0000
     12 C12         -0.6222 -12.0334  10.6427 C.ar           1 <1>                0.0000
     13 C13          0.3555 -12.1627   9.6739 C.ar           1 <1>                0.0000
     14 C14          0.9299 -13.3966   9.4321 C.ar           1 <1>                0.0000
     15 C15          0.5295 -14.5003  10.1617 C.ar           1 <1>                0.0000
     16 H16         -1.2428 -17.5108  10.9815 H              1 <1>                0.0000
     17 H17          0.1751 -16.6252  10.3356 H              1 <1>                0.0000
     18 H18         -1.9784 -15.5912  12.0016 H              1 <1>                0.0000
     19 H19         -0.9813 -17.3935  13.8421 H              1 <1>                0.0000
     20 H20          0.5495 -16.4233  15.5864 H              1 <1>                0.0000
     21 H21          0.9528 -18.0760  15.0754 H              1 <1>                0.0000
     22 H22          2.3002 -15.5104  14.1197 H              1 <1>                0.0000
     23 H23          3.0039 -16.7408  15.2018 H              1 <1>                0.0000
     24 H24          3.7912 -17.1150  12.8904 H              1 <1>                0.0000
     25 H25          2.7163 -18.4487  13.3847 H              1 <1>                0.0000
     26 H26          0.4273 -18.6268  12.2916 H              1 <1>                0.0000
     27 H27         -1.7893 -13.0369  12.1262 H              1 <1>                0.0000
     28 H28         -1.0709 -11.0693  10.8316 H              1 <1>                0.0000
     29 H29          0.6701 -11.2999   9.1057 H              1 <1>                0.0000
     30 H30          1.6934 -13.4977   8.6750 H              1 <1>                0.0000
     31 H31          0.9783 -15.4643   9.9728 H              1 <1>                0.0000
     32 H32          1.8674 -16.0848  11.8777 H              1 <1>                0.0000
     33 H33          2.2224 -17.5402  11.2021 H              1 <1>                0.0000
@<TRIPOS>BOND
    1    1    2 1     
    2    1    9 1     
    3    1   16 1     
    4    1   17 1     
    5    2    3 1     
    6    2   10 1     
    7    2   18 1     
    8    3    4 1     
    9    4    5 1     
   10    4    9 1     
   11    4   19 1     
   12    5    6 1     
   13    5   20 1     
   14    5   21 1     
   15    6    7 1     
   16    6   22 1     
   17    6   23 1     
   18    7    8 1     
   19    7   24 1     
   20    7   25 1     
   21    8    9 1     
   22    8   32 1     
   23    8   33 1     
   24    9   26 1     
   25   10   11 ar    
   26   10   15 ar    
   27   11   12 ar    
   28   11   27 1     
   29   12   13 ar    
   30   12   28 1     
   31   13   14 ar    
   32   13   29 1     
   33   14   15 ar    
   34   14   30 1     
   35   15   31 1     
@<TRIPOS>SUBSTRUCTURE
      1 ****           1
@<TRIPOS>SET
DONOR_HYDROGENS      STATIC     ATOMS    <user>   **** ""
2 32 33
ATOM$RED        STATIC     ATOMS    COLORGROUP SYSTEM
2 32 33
@<TRIPOS>COMMENT
> <Gold.Version>
2022.2.0

> <Gold.Id.Protein>
3pbl|protein|mol2

> <Gold.Protein.RotatedTorsions>
[ 1303 1298 1297 1294 ] final  -52.28 input  179.99 | X-H torsion
[ 2461 2456 2455 2452 ] final  -78.91 input   30.03 | X-H torsion
[ 2515 2510 2509 2506 ] final -109.62 input  -89.99 | X-H torsion
[ 3721 3712 3711 3710 ] final  155.53 input -179.91 | X-H torsion
[ 3841 3832 3831 3830 ] final  179.51 input -179.91 | X-H torsion
[ 3767 3762 3761 3758 ] final  174.54 input  -89.99 | X-H torsion
[ 2472 2467 2466 2463 ] final   75.80 input  -89.97 | X-H torsion

> <Gold.Protein.ActiveResidues>
 VAL82   VAL86   LEU89   PHE106  VAL107  ASP110  VAL111  MET112  CYS114  THR115 
 CYS181  SER182  ILE183  PHE188  VAL189  ILE190  SER192  SER193  SER196  TRP342 
 PHE345  PHE346  HIS349  VAL350  TYR365  THR369  GLY372  TYR373 

> <Gold.Protein.RotatedAtoms>
    3.4385   -9.0882    3.7794 H   0  0  0  0  0  0  0  0  0  0  0  0  # atno 1303 bound_to 1298
    0.3308   -8.7839    7.5776 H   0  0  0  0  0  0  0  0  0  0  0  0  # atno 2461 bound_to 2456
   -4.8951   -4.8630    7.7021 H   0  0  0  0  0  0  0  0  0  0  0  0  # atno 2472 bound_to 2467
    2.7620   -9.1337    4.8531 H   0  0  0  0  0  0  0  0  0  0  0  0  # atno 2515 bound_to 2510
   -3.2344  -16.8061   13.2505 H   0  0  0  0  0  0  0  0  0  0  0  0  # atno 3721 bound_to 3712
   -4.0482  -22.6002   11.5292 H   0  0  0  0  0  0  0  0  0  0  0  0  # atno 3767 bound_to 3762
    2.9620  -20.0556    8.4138 H   0  0  0  0  0  0  0  0  0  0  0  0  # atno 3841 bound_to 3832
    4.8092   -8.7790    4.6113 LP  0  0  0  0  0  0  0  0  0  0  0  0  # atno 4297 bound_to 1298
    4.1147  -10.2542    4.7011 LP  0  0  0  0  0  0  0  0  0  0  0  0  # atno 4298 bound_to 1298
    1.7288   -9.0851    8.3664 LP  0  0  0  0  0  0  0  0  0  0  0  0  # atno 4299 bound_to 2456
    1.6779   -7.9393    7.2040 LP  0  0  0  0  0  0  0  0  0  0  0  0  # atno 4300 bound_to 2456
    2.0656   -8.3327    6.0937 LP  0  0  0  0  0  0  0  0  0  0  0  0  # atno 4301 bound_to 2510
    2.4690   -7.5323    4.7286 LP  0  0  0  0  0  0  0  0  0  0  0  0  # atno 4302 bound_to 2510
   -2.6304  -18.2108   13.7402 LP  0  0  0  0  0  0  0  0  0  0  0  0  # atno 4306 bound_to 3712
   -3.1632  -17.1126   14.8249 LP  0  0  0  0  0  0  0  0  0  0  0  0  # atno 4307 bound_to 3712
    2.3660  -21.1369    9.4393 LP  0  0  0  0  0  0  0  0  0  0  0  0  # atno 4314 bound_to 3832
    1.4418  -19.9011    8.9051 LP  0  0  0  0  0  0  0  0  0  0  0  0  # atno 4315 bound_to 3832
   -4.6453  -23.2524   10.1563 LP  0  0  0  0  0  0  0  0  0  0  0  0  # atno 4318 bound_to 3762
   -5.4336  -22.0224   10.8859 LP  0  0  0  0  0  0  0  0  0  0  0  0  # atno 4319 bound_to 3762
   -3.6484   -5.0957    8.7308 LP  0  0  0  0  0  0  0  0  0  0  0  0  # atno 4320 bound_to 2467
   -5.1735   -5.4348    9.2061 LP  0  0  0  0  0  0  0  0  0  0  0  0  # atno 4321 bound_to 2467

> <Gold.Score>
     Score     S(PLP)   S(hbond)     S(cho)   S(metal)  DE(clash)   DE(tors)     intcor
     45.60     -40.44       2.00       0.00       0.00       0.00       0.42       0.00

> <Gold.PLP.Fitness>
45.5976

> <Gold.PLP.PLP>
-40.4371

> <Gold.PLP.part.hbond>
-1.0000

> <Gold.PLP.part.metal>
0.0000

> <Gold.PLP.part.buried>
-4.1274

> <Gold.PLP.part.nonpolar>
-35.2558

> <Gold.PLP.part.repulsive>
0.0741

> <Gold.PLP.ligand.clash>
0.0000

> <Gold.PLP.ligand.torsion>
0.4222

> <Gold.PLP.Chemscore.Hbond>
2.0000

> <Gold.PLP.Chemscore.CHOScore>
0.0000

> <Gold.PLP.Chemscore.Metal>
0.0000

> <Gold.Chemscore.Hbonds>
donor molecule, donor type, donor heavy atom, donor atom, acceptor molecule, acceptor atom, score
      L1  H     8    33       P1  1227  2.00

> <Gold.PLP.Chemscore.Internal.Correction>
0.0048

