#       Name:                EN300-266730_i001
#       Creating user name   fsindt
#       Creation time:       Wed Mar  1 03:28:47 2023


#       File generated by GOLD software.
#

@<TRIPOS>MOLECULE
EN300-266730_i001|amine_7|mol2|10229|dock20
    33    35     1
SMALL
USER_CHARGES


@<TRIPOS>ATOM
      1 C1          -0.9099 -16.5902  12.1684 C.3            1 <1>                0.0000
      2 C2          -0.3583 -15.1646  12.3726 C.3            1 <1>                0.0000
      3 O3           0.8804 -15.2842  13.0998 O.3            1 <1>                0.0000
      4 C4           0.7902 -16.5063  13.8448 C.3            1 <1>                0.0000
      5 C5           2.1307 -16.9789  14.3626 C.3            1 <1>                0.0000
      6 C6           3.0371 -17.4179  13.2106 C.3            1 <1>                0.0000
      7 C7           2.3007 -18.4990  12.4110 C.3            1 <1>                0.0000
      8 N8           1.0947 -17.9096  11.8263 N.4            1 <1>                1.0000
      9 C9           0.1412 -17.5028  12.8655 C.3            1 <1>                0.0000
     10 C10         -0.1070 -14.5161  11.0357 C.ar           1 <1>                0.0000
     11 C11          0.6889 -15.1488  10.0993 C.ar           1 <1>                0.0000
     12 C12          0.9194 -14.5539   8.8730 C.ar           1 <1>                0.0000
     13 C13          0.3537 -13.3264   8.5830 C.ar           1 <1>                0.0000
     14 C14         -0.4429 -12.6941   9.5192 C.ar           1 <1>                0.0000
     15 C15         -0.6770 -13.2910  10.7438 C.ar           1 <1>                0.0000
     16 H16         -1.8840 -16.6952  12.6460 H              1 <1>                0.0000
     17 H17         -0.9763 -16.8259  11.1063 H              1 <1>                0.0000
     18 H18         -1.0694 -14.5709  12.9470 H              1 <1>                0.0000
     19 H19          0.1133 -16.3611  14.6867 H              1 <1>                0.0000
     20 H20          2.6114 -16.1661  14.9068 H              1 <1>                0.0000
     21 H21          1.9774 -17.8202  15.0384 H              1 <1>                0.0000
     22 H22          3.2521 -16.5657  12.5660 H              1 <1>                0.0000
     23 H23          3.9674 -17.8236  13.6081 H              1 <1>                0.0000
     24 H24          2.9479 -18.8711  11.6167 H              1 <1>                0.0000
     25 H25          2.0229 -19.3186  13.0737 H              1 <1>                0.0000
     26 H26         -0.3130 -18.3575  13.3668 H              1 <1>                0.0000
     27 H27          1.1309 -16.1079  10.3258 H              1 <1>                0.0000
     28 H28          1.5418 -15.0480   8.1415 H              1 <1>                0.0000
     29 H29          0.5343 -12.8613   7.6252 H              1 <1>                0.0000
     30 H30         -0.8846 -11.7349   9.2928 H              1 <1>                0.0000
     31 H31         -1.2994 -12.7969  11.4752 H              1 <1>                0.0000
     32 H32          1.3534 -17.1013  11.2807 H              1 <1>                0.0000
     33 H33          0.6552 -18.5877  11.2221 H              1 <1>                0.0000
@<TRIPOS>BOND
    1    1    2 1     
    2    1    9 1     
    3    1   16 1     
    4    1   17 1     
    5    2    3 1     
    6    2   10 1     
    7    2   18 1     
    8    3    4 1     
    9    4    5 1     
   10    4    9 1     
   11    4   19 1     
   12    5    6 1     
   13    5   20 1     
   14    5   21 1     
   15    6    7 1     
   16    6   22 1     
   17    6   23 1     
   18    7    8 1     
   19    7   24 1     
   20    7   25 1     
   21    8    9 1     
   22    8   32 1     
   23    8   33 1     
   24    9   26 1     
   25   10   11 ar    
   26   10   15 ar    
   27   11   12 ar    
   28   11   27 1     
   29   12   13 ar    
   30   12   28 1     
   31   13   14 ar    
   32   13   29 1     
   33   14   15 ar    
   34   14   30 1     
   35   15   31 1     
@<TRIPOS>SUBSTRUCTURE
      1 ****           1
@<TRIPOS>SET
DONOR_HYDROGENS      STATIC     ATOMS    <user>   **** ""
2 32 33
ATOM$RED        STATIC     ATOMS    COLORGROUP SYSTEM
2 32 33
@<TRIPOS>COMMENT
> <Gold.Version>
2022.2.0

> <Gold.Id.Protein>
3pbl|protein|mol2

> <Gold.Protein.RotatedTorsions>
[ 1303 1298 1297 1294 ] final   48.80 input  179.99 | X-H torsion
[ 2461 2456 2455 2452 ] final  122.22 input   30.03 | X-H torsion
[ 2515 2510 2509 2506 ] final  -35.49 input  -89.99 | X-H torsion
[ 3721 3712 3711 3710 ] final  176.18 input -179.91 | X-H torsion
[ 3841 3832 3831 3830 ] final -132.49 input -179.91 | X-H torsion
[ 3767 3762 3761 3758 ] final  149.09 input  -89.99 | X-H torsion
[ 2472 2467 2466 2463 ] final -150.62 input  -89.97 | X-H torsion

> <Gold.Protein.ActiveResidues>
 VAL82   VAL86   LEU89   PHE106  VAL107  ASP110  VAL111  MET112  CYS114  THR115 
 CYS181  SER182  ILE183  PHE188  VAL189  ILE190  SER192  SER193  SER196  TRP342 
 PHE345  PHE346  HIS349  VAL350  TYR365  THR369  GLY372  TYR373 

> <Gold.Protein.RotatedAtoms>
    3.8581  -10.2642    4.5273 H   0  0  0  0  0  0  0  0  0  0  0  0  # atno 1303 bound_to 1298
    2.1101   -8.6722    8.0871 H   0  0  0  0  0  0  0  0  0  0  0  0  # atno 2461 bound_to 2456
   -4.9876   -5.4587    9.3269 H   0  0  0  0  0  0  0  0  0  0  0  0  # atno 2472 bound_to 2467
    2.7464   -8.1077    4.3656 H   0  0  0  0  0  0  0  0  0  0  0  0  # atno 2515 bound_to 2510
   -3.3129  -16.6312   13.4948 H   0  0  0  0  0  0  0  0  0  0  0  0  # atno 3721 bound_to 3712
   -3.9168  -22.9077   11.2830 H   0  0  0  0  0  0  0  0  0  0  0  0  # atno 3767 bound_to 3762
    2.3946  -19.6392    8.3923 H   0  0  0  0  0  0  0  0  0  0  0  0  # atno 3841 bound_to 3832
    3.6056   -8.8274    3.7937 LP  0  0  0  0  0  0  0  0  0  0  0  0  # atno 4297 bound_to 1298
    4.8985   -9.0294    4.7705 LP  0  0  0  0  0  0  0  0  0  0  0  0  # atno 4298 bound_to 1298
    1.0757   -7.9771    7.0316 LP  0  0  0  0  0  0  0  0  0  0  0  0  # atno 4299 bound_to 2456
    0.5522   -9.1589    8.0295 LP  0  0  0  0  0  0  0  0  0  0  0  0  # atno 4300 bound_to 2456
    2.4946   -9.2225    5.5316 LP  0  0  0  0  0  0  0  0  0  0  0  0  # atno 4301 bound_to 2510
    2.0556   -7.6691    5.7784 LP  0  0  0  0  0  0  0  0  0  0  0  0  # atno 4302 bound_to 2510
   -2.7119  -18.1182   13.4199 LP  0  0  0  0  0  0  0  0  0  0  0  0  # atno 4306 bound_to 3712
   -2.9910  -17.4071   14.8632 LP  0  0  0  0  0  0  0  0  0  0  0  0  # atno 4307 bound_to 3712
    2.9717  -21.0239    8.9630 LP  0  0  0  0  0  0  0  0  0  0  0  0  # atno 4314 bound_to 3832
    1.4916  -20.4952    9.4062 LP  0  0  0  0  0  0  0  0  0  0  0  0  # atno 4315 bound_to 3832
   -4.9950  -23.0482   10.0646 LP  0  0  0  0  0  0  0  0  0  0  0  0  # atno 4318 bound_to 3762
   -5.2153  -21.9193   11.2237 LP  0  0  0  0  0  0  0  0  0  0  0  0  # atno 4319 bound_to 3762
   -5.0929   -4.9158    7.7905 LP  0  0  0  0  0  0  0  0  0  0  0  0  # atno 4320 bound_to 2467
   -3.6365   -5.0192    8.5219 LP  0  0  0  0  0  0  0  0  0  0  0  0  # atno 4321 bound_to 2467

> <Gold.Score>
     Score     S(PLP)   S(hbond)     S(cho)   S(metal)  DE(clash)   DE(tors)     intcor
     40.65     -39.56       0.39       0.00       0.00       0.00       0.04       0.00

> <Gold.PLP.Fitness>
40.6526

> <Gold.PLP.PLP>
-39.5576

> <Gold.PLP.part.hbond>
-1.0000

> <Gold.PLP.part.metal>
0.0000

> <Gold.PLP.part.buried>
1.0755

> <Gold.PLP.part.nonpolar>
-40.3436

> <Gold.PLP.part.repulsive>
0.0233

> <Gold.PLP.ligand.clash>
0.0000

> <Gold.PLP.ligand.torsion>
0.0446

> <Gold.PLP.Chemscore.Hbond>
0.3931

> <Gold.PLP.Chemscore.CHOScore>
0.0000

> <Gold.PLP.Chemscore.Metal>
0.0000

> <Gold.Chemscore.Hbonds>
donor molecule, donor type, donor heavy atom, donor atom, acceptor molecule, acceptor atom, score
      L1  H     8    32       P1  1227  0.39

> <Gold.PLP.Chemscore.Internal.Correction>
0.0048

