#       Name:                EN300-266730_i001
#       Creating user name   fsindt
#       Creation time:       Wed Mar  1 03:28:43 2023


#       File generated by GOLD software.
#

@<TRIPOS>MOLECULE
EN300-266730_i001|amine_7|mol2|10229|dock8
    33    35     1
SMALL
USER_CHARGES


@<TRIPOS>ATOM
      1 C1           0.7851 -12.3790  10.0363 C.3            1 <1>                0.0000
      2 C2           0.0088 -11.5629   8.9829 C.3            1 <1>                0.0000
      3 O3          -0.1314 -12.3946   7.8142 O.3            1 <1>                0.0000
      4 C4           0.9650 -13.3186   7.8471 C.3            1 <1>                0.0000
      5 C5           0.7696 -14.4953   6.9168 C.3            1 <1>                0.0000
      6 C6          -0.3697 -15.3931   7.4037 C.3            1 <1>                0.0000
      7 C7          -0.0546 -15.8250   8.8405 C.3            1 <1>                0.0000
      8 N8          -0.0326 -14.6351   9.6933 N.4            1 <1>                1.0000
      9 C9           1.0678 -13.7354   9.3266 C.3            1 <1>                0.0000
     10 C10         -1.3518 -11.1979   9.5182 C.ar           1 <1>                0.0000
     11 C11         -2.4799 -11.8266   9.0254 C.ar           1 <1>                0.0000
     12 C12         -3.7279 -11.4918   9.5163 C.ar           1 <1>                0.0000
     13 C13         -3.8479 -10.5284  10.5005 C.ar           1 <1>                0.0000
     14 C14         -2.7196  -9.9003  10.9939 C.ar           1 <1>                0.0000
     15 C15         -1.4712 -10.2382  10.5060 C.ar           1 <1>                0.0000
     16 H16          1.7194 -11.8802  10.2938 H              1 <1>                0.0000
     17 H17          0.1749 -12.5330  10.9263 H              1 <1>                0.0000
     18 H18          0.5645 -10.6598   8.7305 H              1 <1>                0.0000
     19 H19          1.8806 -12.7947   7.5730 H              1 <1>                0.0000
     20 H20          0.5341 -14.1273   5.9183 H              1 <1>                0.0000
     21 H21          1.6909 -15.0763   6.8756 H              1 <1>                0.0000
     22 H22         -1.3087 -14.8401   7.3831 H              1 <1>                0.0000
     23 H23         -0.4453 -16.2719   6.7633 H              1 <1>                0.0000
     24 H24         -0.8233 -16.5131   9.1926 H              1 <1>                0.0000
     25 H25          0.9189 -16.3143   8.8702 H              1 <1>                0.0000
     26 H26          2.0428 -14.1484   9.5856 H              1 <1>                0.0000
     27 H27         -2.3862 -12.5793   8.2565 H              1 <1>                0.0000
     28 H28         -4.6094 -11.9826   9.1309 H              1 <1>                0.0000
     29 H29         -4.8229 -10.2663  10.8836 H              1 <1>                0.0000
     30 H30         -2.8134  -9.1474  11.7625 H              1 <1>                0.0000
     31 H31         -0.5897  -9.7475  10.8915 H              1 <1>                0.0000
     32 H32         -0.9080 -14.1429   9.5961 H              1 <1>                0.0000
     33 H33          0.0800 -14.9198  10.6547 H              1 <1>                0.0000
@<TRIPOS>BOND
    1    1    2 1     
    2    1    9 1     
    3    1   16 1     
    4    1   17 1     
    5    2    3 1     
    6    2   10 1     
    7    2   18 1     
    8    3    4 1     
    9    4    5 1     
   10    4    9 1     
   11    4   19 1     
   12    5    6 1     
   13    5   20 1     
   14    5   21 1     
   15    6    7 1     
   16    6   22 1     
   17    6   23 1     
   18    7    8 1     
   19    7   24 1     
   20    7   25 1     
   21    8    9 1     
   22    8   32 1     
   23    8   33 1     
   24    9   26 1     
   25   10   11 ar    
   26   10   15 ar    
   27   11   12 ar    
   28   11   27 1     
   29   12   13 ar    
   30   12   28 1     
   31   13   14 ar    
   32   13   29 1     
   33   14   15 ar    
   34   14   30 1     
   35   15   31 1     
@<TRIPOS>SUBSTRUCTURE
      1 ****           1
@<TRIPOS>SET
DONOR_HYDROGENS      STATIC     ATOMS    <user>   **** ""
2 32 33
ATOM$RED        STATIC     ATOMS    COLORGROUP SYSTEM
2 32 33
@<TRIPOS>COMMENT
> <Gold.Version>
2022.2.0

> <Gold.Id.Protein>
3pbl|protein|mol2

> <Gold.Protein.RotatedTorsions>
[ 1303 1298 1297 1294 ] final -163.19 input  179.99 | X-H torsion
[ 2461 2456 2455 2452 ] final  138.15 input   30.03 | X-H torsion
[ 2515 2510 2509 2506 ] final   60.92 input  -89.99 | X-H torsion
[ 3721 3712 3711 3710 ] final  127.28 input -179.91 | X-H torsion
[ 3841 3832 3831 3830 ] final -119.11 input -179.91 | X-H torsion
[ 3767 3762 3761 3758 ] final  -70.77 input  -89.99 | X-H torsion
[ 2472 2467 2466 2463 ] final  -92.32 input  -89.97 | X-H torsion

> <Gold.Protein.ActiveResidues>
 VAL82   VAL86   LEU89   PHE106  VAL107  ASP110  VAL111  MET112  CYS114  THR115 
 CYS181  SER182  ILE183  PHE188  VAL189  ILE190  SER192  SER193  SER196  TRP342 
 PHE345  PHE346  HIS349  VAL350  TYR365  THR369  GLY372  TYR373 

> <Gold.Protein.RotatedAtoms>
    4.7385   -8.6801    4.5244 H   0  0  0  0  0  0  0  0  0  0  0  0  # atno 1303 bound_to 1298
    1.9939   -8.8569    8.2311 H   0  0  0  0  0  0  0  0  0  0  0  0  # atno 2461 bound_to 2456
   -4.0751   -5.3543    9.3157 H   0  0  0  0  0  0  0  0  0  0  0  0  # atno 2472 bound_to 2467
    2.1455   -7.4673    5.4626 H   0  0  0  0  0  0  0  0  0  0  0  0  # atno 2515 bound_to 2510
   -3.0613  -17.1385   13.0549 H   0  0  0  0  0  0  0  0  0  0  0  0  # atno 3721 bound_to 3712
   -5.3984  -21.9896   10.9587 H   0  0  0  0  0  0  0  0  0  0  0  0  # atno 3767 bound_to 3762
    2.2118  -19.5914    8.4628 H   0  0  0  0  0  0  0  0  0  0  0  0  # atno 3841 bound_to 3832
    4.2396  -10.2150    4.7727 LP  0  0  0  0  0  0  0  0  0  0  0  0  # atno 4297 bound_to 1298
    3.3838   -9.2265    3.7944 LP  0  0  0  0  0  0  0  0  0  0  0  0  # atno 4298 bound_to 1298
    1.3292   -7.9240    7.0670 LP  0  0  0  0  0  0  0  0  0  0  0  0  # atno 4299 bound_to 2456
    0.4149   -9.0274    7.8502 LP  0  0  0  0  0  0  0  0  0  0  0  0  # atno 4300 bound_to 2456
    2.8215   -8.4854    4.3800 LP  0  0  0  0  0  0  0  0  0  0  0  0  # atno 4301 bound_to 2510
    2.3298   -9.0468    5.8325 LP  0  0  0  0  0  0  0  0  0  0  0  0  # atno 4302 bound_to 2510
   -2.6148  -18.1659   14.2051 LP  0  0  0  0  0  0  0  0  0  0  0  0  # atno 4306 bound_to 3712
   -3.3786  -16.7737   14.5859 LP  0  0  0  0  0  0  0  0  0  0  0  0  # atno 4307 bound_to 3712
    3.0675  -20.9070    8.7991 LP  0  0  0  0  0  0  0  0  0  0  0  0  # atno 4314 bound_to 3832
    1.6069  -20.6673    9.4888 LP  0  0  0  0  0  0  0  0  0  0  0  0  # atno 4315 bound_to 3832
   -4.0095  -22.6664   11.4876 LP  0  0  0  0  0  0  0  0  0  0  0  0  # atno 4318 bound_to 3762
   -4.7197  -23.2188   10.1248 LP  0  0  0  0  0  0  0  0  0  0  0  0  # atno 4319 bound_to 3762
   -5.5095   -5.2335    8.5448 LP  0  0  0  0  0  0  0  0  0  0  0  0  # atno 4320 bound_to 2467
   -4.1322   -4.8058    7.7787 LP  0  0  0  0  0  0  0  0  0  0  0  0  # atno 4321 bound_to 2467

> <Gold.Score>
     Score     S(PLP)   S(hbond)     S(cho)   S(metal)  DE(clash)   DE(tors)     intcor
     48.28     -48.74       0.00       0.00       0.00       0.00       0.23       0.00

> <Gold.PLP.Fitness>
48.2789

> <Gold.PLP.PLP>
-48.7416

> <Gold.PLP.part.hbond>
0.0000

> <Gold.PLP.part.metal>
0.0000

> <Gold.PLP.part.buried>
-2.5281

> <Gold.PLP.part.nonpolar>
-47.1404

> <Gold.PLP.part.repulsive>
0.0000

> <Gold.PLP.ligand.clash>
0.0000

> <Gold.PLP.ligand.torsion>
0.2338

> <Gold.PLP.Chemscore.Hbond>
0.0000

> <Gold.PLP.Chemscore.CHOScore>
0.0000

> <Gold.PLP.Chemscore.Metal>
0.0000

> <Gold.PLP.Chemscore.Internal.Correction>
0.0048

