#       Name:                EN300-266730_i001
#       Creating user name   fsindt
#       Creation time:       Wed Mar  1 03:28:41 2023


#       File generated by GOLD software.
#

@<TRIPOS>MOLECULE
EN300-266730_i001|amine_7|mol2|10229|dock3
    33    35     1
SMALL
USER_CHARGES


@<TRIPOS>ATOM
      1 C1           0.1859 -10.7330  10.2545 C.3            1 <1>                0.0000
      2 C2          -0.1062 -12.2315  10.4722 C.3            1 <1>                0.0000
      3 O3          -1.5077 -12.3541  10.7855 O.3            1 <1>                0.0000
      4 C4          -1.9002 -11.0999  11.3596 C.3            1 <1>                0.0000
      5 C5          -3.4013 -10.9160  11.3989 C.3            1 <1>                0.0000
      6 C6          -3.9706 -10.7692   9.9862 C.3            1 <1>                0.0000
      7 C7          -3.2521  -9.6001   9.3026 C.3            1 <1>                0.0000
      8 N8          -1.8320  -9.9324   9.1758 N.4            1 <1>                1.0000
      9 C9          -1.1900 -10.0442  10.4912 C.3            1 <1>                0.0000
     10 C10          0.2073 -13.0025   9.2159 C.ar           1 <1>                0.0000
     11 C11          0.4966 -12.3274   8.0448 C.ar           1 <1>                0.0000
     12 C12          0.7841 -13.0345   6.8923 C.ar           1 <1>                0.0000
     13 C13          0.7829 -14.4168   6.9111 C.ar           1 <1>                0.0000
     14 C14          0.4946 -15.0918   8.0825 C.ar           1 <1>                0.0000
     15 C15          0.2112 -14.3847   9.2359 C.ar           1 <1>                0.0000
     16 H16          0.9205 -10.3779  10.9772 H              1 <1>                0.0000
     17 H17          0.5325 -10.5551   9.2366 H              1 <1>                0.0000
     18 H18          0.4930 -12.6094  11.3006 H              1 <1>                0.0000
     19 H19         -1.5056 -11.0332  12.3734 H              1 <1>                0.0000
     20 H20         -3.8558 -11.7818  11.8802 H              1 <1>                0.0000
     21 H21         -3.6377 -10.0215  11.9751 H              1 <1>                0.0000
     22 H22         -3.7991 -11.6865   9.4230 H              1 <1>                0.0000
     23 H23         -5.0397 -10.5638  10.0397 H              1 <1>                0.0000
     24 H24         -3.6792  -9.4365   8.3131 H              1 <1>                0.0000
     25 H25         -3.3645  -8.6989   9.9055 H              1 <1>                0.0000
     26 H26         -1.0950  -9.0786  10.9878 H              1 <1>                0.0000
     27 H27          0.4975 -11.2475   8.0301 H              1 <1>                0.0000
     28 H28          1.0094 -12.5071   5.9772 H              1 <1>                0.0000
     29 H29          1.0069 -14.9692   6.0106 H              1 <1>                0.0000
     30 H30          0.4933 -16.1717   8.0970 H              1 <1>                0.0000
     31 H31         -0.0140 -14.9121  10.1511 H              1 <1>                0.0000
     32 H32         -1.7407 -10.8110   8.6880 H              1 <1>                0.0000
     33 H33         -1.3701  -9.2106   8.6432 H              1 <1>                0.0000
@<TRIPOS>BOND
    1    1    2 1     
    2    1    9 1     
    3    1   16 1     
    4    1   17 1     
    5    2    3 1     
    6    2   10 1     
    7    2   18 1     
    8    3    4 1     
    9    4    5 1     
   10    4    9 1     
   11    4   19 1     
   12    5    6 1     
   13    5   20 1     
   14    5   21 1     
   15    6    7 1     
   16    6   22 1     
   17    6   23 1     
   18    7    8 1     
   19    7   24 1     
   20    7   25 1     
   21    8    9 1     
   22    8   32 1     
   23    8   33 1     
   24    9   26 1     
   25   10   11 ar    
   26   10   15 ar    
   27   11   12 ar    
   28   11   27 1     
   29   12   13 ar    
   30   12   28 1     
   31   13   14 ar    
   32   13   29 1     
   33   14   15 ar    
   34   14   30 1     
   35   15   31 1     
@<TRIPOS>SUBSTRUCTURE
      1 ****           1
@<TRIPOS>SET
DONOR_HYDROGENS      STATIC     ATOMS    <user>   **** ""
2 32 33
ATOM$RED        STATIC     ATOMS    COLORGROUP SYSTEM
2 32 33
@<TRIPOS>COMMENT
> <Gold.Version>
2022.2.0

> <Gold.Id.Protein>
3pbl|protein|mol2

> <Gold.Protein.RotatedTorsions>
[ 1303 1298 1297 1294 ] final  -77.77 input  179.99 | X-H torsion
[ 2461 2456 2455 2452 ] final  107.92 input   30.03 | X-H torsion
[ 2515 2510 2509 2506 ] final  -65.36 input  -89.99 | X-H torsion
[ 3721 3712 3711 3710 ] final   58.13 input -179.91 | X-H torsion
[ 3841 3832 3831 3830 ] final -159.10 input -179.91 | X-H torsion
[ 3767 3762 3761 3758 ] final   53.53 input  -89.99 | X-H torsion
[ 2472 2467 2466 2463 ] final  -84.04 input  -89.97 | X-H torsion

> <Gold.Protein.ActiveResidues>
 VAL82   VAL86   LEU89   PHE106  VAL107  ASP110  VAL111  MET112  CYS114  THR115 
 CYS181  SER182  ILE183  PHE188  VAL189  ILE190  SER192  SER193  SER196  TRP342 
 PHE345  PHE346  HIS349  VAL350  TYR365  THR369  GLY372  TYR373 

> <Gold.Protein.RotatedAtoms>
    3.6775   -8.7495    3.8140 H   0  0  0  0  0  0  0  0  0  0  0  0  # atno 1303 bound_to 1298
    2.1580   -8.5015    7.9334 H   0  0  0  0  0  0  0  0  0  0  0  0  # atno 2461 bound_to 2456
   -3.9658   -5.3164    9.2440 H   0  0  0  0  0  0  0  0  0  0  0  0  # atno 2472 bound_to 2467
    2.8309   -8.5841    4.4088 H   0  0  0  0  0  0  0  0  0  0  0  0  # atno 2515 bound_to 2510
   -2.5816  -17.9211   13.4069 H   0  0  0  0  0  0  0  0  0  0  0  0  # atno 3721 bound_to 3712
   -4.6591  -23.2461   10.1492 H   0  0  0  0  0  0  0  0  0  0  0  0  # atno 3767 bound_to 3762
    2.7410  -19.8314    8.3499 H   0  0  0  0  0  0  0  0  0  0  0  0  # atno 3841 bound_to 3832
    4.9101   -9.1267    4.8163 LP  0  0  0  0  0  0  0  0  0  0  0  0  # atno 4297 bound_to 1298
    3.7747  -10.2454    4.4615 LP  0  0  0  0  0  0  0  0  0  0  0  0  # atno 4298 bound_to 1298
    0.8589   -8.0658    7.0446 LP  0  0  0  0  0  0  0  0  0  0  0  0  # atno 4299 bound_to 2456
    0.7211   -9.2408    8.1702 LP  0  0  0  0  0  0  0  0  0  0  0  0  # atno 4300 bound_to 2456
    2.2877   -8.9782    5.8973 LP  0  0  0  0  0  0  0  0  0  0  0  0  # atno 4301 bound_to 2510
    2.1780   -7.4367    5.3695 LP  0  0  0  0  0  0  0  0  0  0  0  0  # atno 4302 bound_to 2510
   -2.9994  -17.3923   14.8642 LP  0  0  0  0  0  0  0  0  0  0  0  0  # atno 4306 bound_to 3712
   -3.5478  -16.6438   13.5204 LP  0  0  0  0  0  0  0  0  0  0  0  0  # atno 4307 bound_to 3712
    2.6732  -21.1507    9.2614 LP  0  0  0  0  0  0  0  0  0  0  0  0  # atno 4314 bound_to 3832
    1.3898  -20.1464    9.1569 LP  0  0  0  0  0  0  0  0  0  0  0  0  # atno 4315 bound_to 3832
   -5.4275  -22.0160   10.8997 LP  0  0  0  0  0  0  0  0  0  0  0  0  # atno 4318 bound_to 3762
   -4.0408  -22.6133   11.5219 LP  0  0  0  0  0  0  0  0  0  0  0  0  # atno 4319 bound_to 3762
   -5.4950   -5.2779    8.6726 LP  0  0  0  0  0  0  0  0  0  0  0  0  # atno 4320 bound_to 2467
   -4.2560   -4.7992    7.7226 LP  0  0  0  0  0  0  0  0  0  0  0  0  # atno 4321 bound_to 2467

> <Gold.Score>
     Score     S(PLP)   S(hbond)     S(cho)   S(metal)  DE(clash)   DE(tors)     intcor
     52.80     -53.48       0.00       0.00       0.00       0.27       0.21       0.00

> <Gold.PLP.Fitness>
52.7993

> <Gold.PLP.PLP>
-53.4790

> <Gold.PLP.part.hbond>
0.0000

> <Gold.PLP.part.metal>
0.0000

> <Gold.PLP.part.buried>
-5.2584

> <Gold.PLP.part.nonpolar>
-49.0294

> <Gold.PLP.part.repulsive>
0.1146

> <Gold.PLP.ligand.clash>
0.2720

> <Gold.PLP.ligand.torsion>
0.2063

> <Gold.PLP.Chemscore.Hbond>
0.0000

> <Gold.PLP.Chemscore.CHOScore>
0.0000

> <Gold.PLP.Chemscore.Metal>
0.0000

> <Gold.PLP.Chemscore.Internal.Correction>
0.0049

