#       Name:                EN300-266730_i001
#       Creating user name   fsindt
#       Creation time:       Wed Mar  1 03:28:41 2023


#       File generated by GOLD software.
#

@<TRIPOS>MOLECULE
EN300-266730_i001|amine_7|mol2|10229|dock4
    33    35     1
SMALL
USER_CHARGES


@<TRIPOS>ATOM
      1 C1          -0.8260 -16.5190  11.6370 C.3            1 <1>                0.0000
      2 C2          -0.1130 -15.1661  11.4381 C.3            1 <1>                0.0000
      3 O3           1.0520 -15.1665  12.2866 O.3            1 <1>                0.0000
      4 C4           0.7613 -16.0669  13.3644 C.3            1 <1>                0.0000
      5 C5           1.9959 -16.4773  14.1362 C.3            1 <1>                0.0000
      6 C6           2.9109 -17.3527  13.2772 C.3            1 <1>                0.0000
      7 C7           2.0962 -18.5555  12.7874 C.3            1 <1>                0.0000
      8 N8           1.0138 -18.0702  11.9293 N.4            1 <1>                1.0000
      9 C9           0.0552 -17.2568  12.6871 C.3            1 <1>                0.0000
     10 C10          0.3024 -15.0128   9.9976 C.ar           1 <1>                0.0000
     11 C11          1.1113 -13.9573   9.6201 C.ar           1 <1>                0.0000
     12 C12          1.4923 -13.8166   8.2988 C.ar           1 <1>                0.0000
     13 C13          1.0647 -14.7317   7.3549 C.ar           1 <1>                0.0000
     14 C14          0.2565 -15.7876   7.7326 C.ar           1 <1>                0.0000
     15 C15         -0.1210 -15.9307   9.0547 C.ar           1 <1>                0.0000
     16 H16         -1.8339 -16.3668  12.0230 H              1 <1>                0.0000
     17 H17         -0.8541 -17.0775  10.7014 H              1 <1>                0.0000
     18 H18         -0.7785 -14.3512  11.7227 H              1 <1>                0.0000
     19 H19          0.0561 -15.5910  14.0457 H              1 <1>                0.0000
     20 H20          2.5398 -15.5841  14.4434 H              1 <1>                0.0000
     21 H21          1.6952 -17.0354  15.0228 H              1 <1>                0.0000
     22 H22          3.2722 -16.7804  12.4229 H              1 <1>                0.0000
     23 H23          3.7555 -17.6983  13.8733 H              1 <1>                0.0000
     24 H24          2.7404 -19.2267  12.2192 H              1 <1>                0.0000
     25 H25          1.6758 -19.0851  13.6423 H              1 <1>                0.0000
     26 H26         -0.5341 -17.8541  13.3829 H              1 <1>                0.0000
     27 H27          1.4454 -13.2424  10.3575 H              1 <1>                0.0000
     28 H28          2.1238 -12.9916   8.0038 H              1 <1>                0.0000
     29 H29          1.3618 -14.6213   6.3226 H              1 <1>                0.0000
     30 H30         -0.0779 -16.5023   6.9952 H              1 <1>                0.0000
     31 H31         -0.7524 -16.7558   9.3497 H              1 <1>                0.0000
     32 H32          1.4065 -17.5114  11.1865 H              1 <1>                0.0000
     33 H33          0.5315 -18.8600  11.5274 H              1 <1>                0.0000
@<TRIPOS>BOND
    1    1    2 1     
    2    1    9 1     
    3    1   16 1     
    4    1   17 1     
    5    2    3 1     
    6    2   10 1     
    7    2   18 1     
    8    3    4 1     
    9    4    5 1     
   10    4    9 1     
   11    4   19 1     
   12    5    6 1     
   13    5   20 1     
   14    5   21 1     
   15    6    7 1     
   16    6   22 1     
   17    6   23 1     
   18    7    8 1     
   19    7   24 1     
   20    7   25 1     
   21    8    9 1     
   22    8   32 1     
   23    8   33 1     
   24    9   26 1     
   25   10   11 ar    
   26   10   15 ar    
   27   11   12 ar    
   28   11   27 1     
   29   12   13 ar    
   30   12   28 1     
   31   13   14 ar    
   32   13   29 1     
   33   14   15 ar    
   34   14   30 1     
   35   15   31 1     
@<TRIPOS>SUBSTRUCTURE
      1 ****           1
@<TRIPOS>SET
DONOR_HYDROGENS      STATIC     ATOMS    <user>   **** ""
2 32 33
ATOM$RED        STATIC     ATOMS    COLORGROUP SYSTEM
2 32 33
@<TRIPOS>COMMENT
> <Gold.Version>
2022.2.0

> <Gold.Id.Protein>
3pbl|protein|mol2

> <Gold.Protein.RotatedTorsions>
[ 1303 1298 1297 1294 ] final -108.01 input  179.99 | X-H torsion
[ 2461 2456 2455 2452 ] final   41.57 input   30.03 | X-H torsion
[ 2515 2510 2509 2506 ] final   53.23 input  -89.99 | X-H torsion
[ 3721 3712 3711 3710 ] final  -15.13 input -179.91 | X-H torsion
[ 3841 3832 3831 3830 ] final  -89.08 input -179.91 | X-H torsion
[ 3767 3762 3761 3758 ] final   77.56 input  -89.99 | X-H torsion
[ 2472 2467 2466 2463 ] final  146.17 input  -89.97 | X-H torsion

> <Gold.Protein.ActiveResidues>
 VAL82   VAL86   LEU89   PHE106  VAL107  ASP110  VAL111  MET112  CYS114  THR115 
 CYS181  SER182  ILE183  PHE188  VAL189  ILE190  SER192  SER193  SER196  TRP342 
 PHE345  PHE346  HIS349  VAL350  TYR365  THR369  GLY372  TYR373 

> <Gold.Protein.RotatedAtoms>
    4.0678   -8.5092    3.9920 H   0  0  0  0  0  0  0  0  0  0  0  0  # atno 1303 bound_to 1298
    1.6847   -7.9405    7.2077 H   0  0  0  0  0  0  0  0  0  0  0  0  # atno 2461 bound_to 2456
   -5.5100   -5.2258    8.5211 H   0  0  0  0  0  0  0  0  0  0  0  0  # atno 2472 bound_to 2467
    2.1860   -7.4317    5.3483 H   0  0  0  0  0  0  0  0  0  0  0  0  # atno 2515 bound_to 2510
   -2.5328  -17.8464   14.4366 H   0  0  0  0  0  0  0  0  0  0  0  0  # atno 3721 bound_to 3712
   -4.3373  -23.3327   10.3569 H   0  0  0  0  0  0  0  0  0  0  0  0  # atno 3767 bound_to 3762
    1.8425  -19.6187    8.7159 H   0  0  0  0  0  0  0  0  0  0  0  0  # atno 3841 bound_to 3832
    4.8309   -9.5953    4.9431 LP  0  0  0  0  0  0  0  0  0  0  0  0  # atno 4297 bound_to 1298
    3.4634  -10.0172    4.1566 LP  0  0  0  0  0  0  0  0  0  0  0  0  # atno 4298 bound_to 1298
    0.3309   -8.7783    7.5720 LP  0  0  0  0  0  0  0  0  0  0  0  0  # atno 4299 bound_to 2456
    1.7223   -9.0891    8.3682 LP  0  0  0  0  0  0  0  0  0  0  0  0  # atno 4300 bound_to 2456
    2.8323   -8.6061    4.4162 LP  0  0  0  0  0  0  0  0  0  0  0  0  # atno 4301 bound_to 2510
    2.2785   -8.9617    5.9107 LP  0  0  0  0  0  0  0  0  0  0  0  0  # atno 4302 bound_to 2510
   -3.5141  -16.5922   14.2316 LP  0  0  0  0  0  0  0  0  0  0  0  0  # atno 4306 bound_to 3712
   -3.0894  -17.5302   12.9641 LP  0  0  0  0  0  0  0  0  0  0  0  0  # atno 4307 bound_to 3712
    3.1188  -20.5556    8.4527 LP  0  0  0  0  0  0  0  0  0  0  0  0  # atno 4314 bound_to 3832
    1.9822  -20.9871    9.5429 LP  0  0  0  0  0  0  0  0  0  0  0  0  # atno 4315 bound_to 3832
   -5.5106  -22.2177   10.5734 LP  0  0  0  0  0  0  0  0  0  0  0  0  # atno 4318 bound_to 3762
   -4.2793  -22.3250   11.6406 LP  0  0  0  0  0  0  0  0  0  0  0  0  # atno 4319 bound_to 3762
   -4.1106   -4.8078    7.7907 LP  0  0  0  0  0  0  0  0  0  0  0  0  # atno 4320 bound_to 2467
   -4.0964   -5.3600    9.3274 LP  0  0  0  0  0  0  0  0  0  0  0  0  # atno 4321 bound_to 2467

> <Gold.Score>
     Score     S(PLP)   S(hbond)     S(cho)   S(metal)  DE(clash)   DE(tors)     intcor
     47.14     -42.40       1.76       0.00       0.00       0.34       0.10       0.00

> <Gold.PLP.Fitness>
47.1440

> <Gold.PLP.PLP>
-42.4038

> <Gold.PLP.part.hbond>
-1.0000

> <Gold.PLP.part.metal>
0.0000

> <Gold.PLP.part.buried>
-3.0467

> <Gold.PLP.part.nonpolar>
-39.1226

> <Gold.PLP.part.repulsive>
0.0566

> <Gold.PLP.ligand.clash>
0.3386

> <Gold.PLP.ligand.torsion>
0.1031

> <Gold.PLP.Chemscore.Hbond>
1.7600

> <Gold.PLP.Chemscore.CHOScore>
0.0000

> <Gold.PLP.Chemscore.Metal>
0.0000

> <Gold.Chemscore.Hbonds>
donor molecule, donor type, donor heavy atom, donor atom, acceptor molecule, acceptor atom, score
      L1  H     8    32       P1  1227  1.76

> <Gold.PLP.Chemscore.Internal.Correction>
0.0049

