#       Name:                EN300-266730_i001
#       Creating user name   fsindt
#       Creation time:       Wed Mar  1 03:28:42 2023


#       File generated by GOLD software.
#

@<TRIPOS>MOLECULE
EN300-266730_i001|amine_7|mol2|10229|dock6
    33    35     1
SMALL
USER_CHARGES


@<TRIPOS>ATOM
      1 C1          -0.4046 -12.4579  10.4669 C.3            1 <1>                0.0000
      2 C2          -0.7614 -11.0479   9.9543 C.3            1 <1>                0.0000
      3 O3          -0.1668 -10.9028   8.6494 O.3            1 <1>                0.0000
      4 C4           0.9590 -11.7908   8.6220 C.3            1 <1>                0.0000
      5 C5           1.4695 -12.0491   7.2216 C.3            1 <1>                0.0000
      6 C6           0.4542 -12.8569   6.4106 C.3            1 <1>                0.0000
      7 C7           0.1553 -14.1512   7.1761 C.3            1 <1>                0.0000
      8 N8          -0.4715 -13.8061   8.4534 N.4            1 <1>                1.0000
      9 C9           0.4544 -13.0677   9.3206 C.3            1 <1>                0.0000
     10 C10         -2.2580 -10.9025   9.8545 C.ar           1 <1>                0.0000
     11 C11         -2.8205  -9.6528   9.6741 C.ar           1 <1>                0.0000
     12 C12         -4.1934  -9.5194   9.5827 C.ar           1 <1>                0.0000
     13 C13         -5.0037 -10.6359   9.6711 C.ar           1 <1>                0.0000
     14 C14         -4.4411 -11.8857   9.8506 C.ar           1 <1>                0.0000
     15 C15         -3.0680 -12.0196   9.9378 C.ar           1 <1>                0.0000
     16 H16          0.1759 -12.3945  11.3873 H              1 <1>                0.0000
     17 H17         -1.3077 -13.0478  10.6231 H              1 <1>                0.0000
     18 H18         -0.3582 -10.2946  10.6311 H              1 <1>                0.0000
     19 H19          1.7630 -11.3652   9.2224 H              1 <1>                0.0000
     20 H20          1.6485 -11.0960   6.7241 H              1 <1>                0.0000
     21 H21          2.4058 -12.6042   7.2783 H              1 <1>                0.0000
     22 H22         -0.4630 -12.2805   6.2901 H              1 <1>                0.0000
     23 H23          0.8709 -13.0958   5.4322 H              1 <1>                0.0000
     24 H24         -0.5230 -14.7733   6.5920 H              1 <1>                0.0000
     25 H25          1.0845 -14.6910   7.3587 H              1 <1>                0.0000
     26 H26          1.2629 -13.6972   9.6925 H              1 <1>                0.0000
     27 H27         -2.1875  -8.7805   9.6050 H              1 <1>                0.0000
     28 H28         -4.6330  -8.5429   9.4424 H              1 <1>                0.0000
     29 H29         -6.0763 -10.5317   9.6003 H              1 <1>                0.0000
     30 H30         -5.0742 -12.7580   9.9201 H              1 <1>                0.0000
     31 H31         -2.6284 -12.9961  10.0779 H              1 <1>                0.0000
     32 H32         -1.2857 -13.2363   8.2784 H              1 <1>                0.0000
     33 H33         -0.7571 -14.6535   8.9208 H              1 <1>                0.0000
@<TRIPOS>BOND
    1    1    2 1     
    2    1    9 1     
    3    1   16 1     
    4    1   17 1     
    5    2    3 1     
    6    2   10 1     
    7    2   18 1     
    8    3    4 1     
    9    4    5 1     
   10    4    9 1     
   11    4   19 1     
   12    5    6 1     
   13    5   20 1     
   14    5   21 1     
   15    6    7 1     
   16    6   22 1     
   17    6   23 1     
   18    7    8 1     
   19    7   24 1     
   20    7   25 1     
   21    8    9 1     
   22    8   32 1     
   23    8   33 1     
   24    9   26 1     
   25   10   11 ar    
   26   10   15 ar    
   27   11   12 ar    
   28   11   27 1     
   29   12   13 ar    
   30   12   28 1     
   31   13   14 ar    
   32   13   29 1     
   33   14   15 ar    
   34   14   30 1     
   35   15   31 1     
@<TRIPOS>SUBSTRUCTURE
      1 ****           1
@<TRIPOS>SET
DONOR_HYDROGENS      STATIC     ATOMS    <user>   **** ""
2 32 33
ATOM$RED        STATIC     ATOMS    COLORGROUP SYSTEM
2 32 33
@<TRIPOS>COMMENT
> <Gold.Version>
2022.2.0

> <Gold.Id.Protein>
3pbl|protein|mol2

> <Gold.Protein.RotatedTorsions>
[ 1303 1298 1297 1294 ] final  162.28 input  179.99 | X-H torsion
[ 2461 2456 2455 2452 ] final -131.65 input   30.03 | X-H torsion
[ 2515 2510 2509 2506 ] final -117.23 input  -89.99 | X-H torsion
[ 3721 3712 3711 3710 ] final -163.33 input -179.91 | X-H torsion
[ 3841 3832 3831 3830 ] final -130.65 input -179.91 | X-H torsion
[ 3767 3762 3761 3758 ] final  -84.63 input  -89.99 | X-H torsion
[ 2472 2467 2466 2463 ] final -143.69 input  -89.97 | X-H torsion

> <Gold.Protein.ActiveResidues>
 VAL82   VAL86   LEU89   PHE106  VAL107  ASP110  VAL111  MET112  CYS114  THR115 
 CYS181  SER182  ILE183  PHE188  VAL189  ILE190  SER192  SER193  SER196  TRP342 
 PHE345  PHE346  HIS349  VAL350  TYR365  THR369  GLY372  TYR373 

> <Gold.Protein.RotatedAtoms>
    4.9096   -9.1258    4.8163 H   0  0  0  0  0  0  0  0  0  0  0  0  # atno 1303 bound_to 1298
    0.7153   -9.2390    8.1665 H   0  0  0  0  0  0  0  0  0  0  0  0  # atno 2461 bound_to 2456
   -4.8831   -5.4635    9.3721 H   0  0  0  0  0  0  0  0  0  0  0  0  # atno 2472 bound_to 2467
    2.7282   -9.1878    4.9607 H   0  0  0  0  0  0  0  0  0  0  0  0  # atno 2515 bound_to 2510
   -3.3388  -16.5404   13.7881 H   0  0  0  0  0  0  0  0  0  0  0  0  # atno 3721 bound_to 3712
   -5.2801  -21.9317   11.1442 H   0  0  0  0  0  0  0  0  0  0  0  0  # atno 3767 bound_to 3762
    2.3693  -19.6305    8.4002 H   0  0  0  0  0  0  0  0  0  0  0  0  # atno 3841 bound_to 3832
    3.7752  -10.2456    4.4619 LP  0  0  0  0  0  0  0  0  0  0  0  0  # atno 4297 bound_to 1298
    3.6770   -8.7501    3.8133 LP  0  0  0  0  0  0  0  0  0  0  0  0  # atno 4298 bound_to 1298
    2.1571   -8.5067    7.9381 LP  0  0  0  0  0  0  0  0  0  0  0  0  # atno 4299 bound_to 2456
    0.8651   -8.0627    7.0436 LP  0  0  0  0  0  0  0  0  0  0  0  0  # atno 4300 bound_to 2456
    2.0465   -8.2102    6.0766 LP  0  0  0  0  0  0  0  0  0  0  0  0  # atno 4301 bound_to 2510
    2.5219   -7.6006    4.6382 LP  0  0  0  0  0  0  0  0  0  0  0  0  # atno 4302 bound_to 2510
   -2.8405  -17.9334   13.1644 LP  0  0  0  0  0  0  0  0  0  0  0  0  # atno 4306 bound_to 3712
   -2.8324  -17.6968   14.7801 LP  0  0  0  0  0  0  0  0  0  0  0  0  # atno 4307 bound_to 3712
    2.9873  -21.0097    8.9406 LP  0  0  0  0  0  0  0  0  0  0  0  0  # atno 4314 bound_to 3832
    1.5051  -20.5194    9.4195 LP  0  0  0  0  0  0  0  0  0  0  0  0  # atno 4315 bound_to 3832
   -3.9360  -22.8351   11.3540 LP  0  0  0  0  0  0  0  0  0  0  0  0  # atno 4318 bound_to 3762
   -4.9115  -23.1080   10.0731 LP  0  0  0  0  0  0  0  0  0  0  0  0  # atno 4319 bound_to 3762
   -5.1832   -4.9479    7.8521 LP  0  0  0  0  0  0  0  0  0  0  0  0  # atno 4320 bound_to 2467
   -3.6507   -4.9822    8.4151 LP  0  0  0  0  0  0  0  0  0  0  0  0  # atno 4321 bound_to 2467

> <Gold.Score>
     Score     S(PLP)   S(hbond)     S(cho)   S(metal)  DE(clash)   DE(tors)     intcor
     56.86     -54.54       1.00       0.00       0.00       0.00       0.34       0.00

> <Gold.PLP.Fitness>
56.8601

> <Gold.PLP.PLP>
-54.5361

> <Gold.PLP.part.hbond>
-1.0000

> <Gold.PLP.part.metal>
0.0000

> <Gold.PLP.part.buried>
-3.2158

> <Gold.PLP.part.nonpolar>
-51.6793

> <Gold.PLP.part.repulsive>
0.0000

> <Gold.PLP.ligand.clash>
0.0000

> <Gold.PLP.ligand.torsion>
0.3404

> <Gold.PLP.Chemscore.Hbond>
1.0000

> <Gold.PLP.Chemscore.CHOScore>
0.0000

> <Gold.PLP.Chemscore.Metal>
0.0000

> <Gold.Chemscore.Hbonds>
donor molecule, donor type, donor heavy atom, donor atom, acceptor molecule, acceptor atom, score
      P1  H  2456  2461       L1     3  1.00

> <Gold.PLP.Chemscore.Internal.Correction>
0.0048

