#       Name:                EN300-266730_i001
#       Creating user name   fsindt
#       Creation time:       Wed Mar  1 03:28:40 2023


#       File generated by GOLD software.
#

@<TRIPOS>MOLECULE
EN300-266730_i001|amine_7|mol2|10229|dock1
    33    35     1
SMALL
USER_CHARGES


@<TRIPOS>ATOM
      1 C1           2.7303 -17.7055  13.4442 C.3            1 <1>                0.0000
      2 C2           1.6795 -18.3724  14.3548 C.3            1 <1>                0.0000
      3 O3           0.5230 -17.5126  14.3761 O.3            1 <1>                0.0000
      4 C4           1.0028 -16.1901  14.0977 C.3            1 <1>                0.0000
      5 C5          -0.1031 -15.2333  13.7104 C.3            1 <1>                0.0000
      6 C6          -0.6987 -15.6083  12.3518 C.3            1 <1>                0.0000
      7 C7           0.4395 -15.6387  11.3252 C.3            1 <1>                0.0000
      8 N8           1.3825 -16.6933  11.7021 N.4            1 <1>                1.0000
      9 C9           2.0418 -16.3894  12.9779 C.3            1 <1>                0.0000
     10 C10          1.3040 -19.7225  13.8004 C.ar           1 <1>                0.0000
     11 C11          1.4079 -20.8490  14.5947 C.ar           1 <1>                0.0000
     12 C12          1.0636 -22.0875  14.0862 C.ar           1 <1>                0.0000
     13 C13          0.6149 -22.1993  12.7834 C.ar           1 <1>                0.0000
     14 C14          0.5102 -21.0726  11.9894 C.ar           1 <1>                0.0000
     15 C15          0.8505 -19.8336  12.4993 C.ar           1 <1>                0.0000
     16 H16          3.6376 -17.4839  14.0062 H              1 <1>                0.0000
     17 H17          2.9552 -18.3431  12.5892 H              1 <1>                0.0000
     18 H18          2.0787 -18.4816  15.3631 H              1 <1>                0.0000
     19 H19          1.5163 -15.8047  14.9786 H              1 <1>                0.0000
     20 H20         -0.8871 -15.2669  14.4668 H              1 <1>                0.0000
     21 H21          0.3001 -14.2220  13.6580 H              1 <1>                0.0000
     22 H22         -1.1653 -16.5914  12.4130 H              1 <1>                0.0000
     23 H23         -1.4403 -14.8658  12.0573 H              1 <1>                0.0000
     24 H24          0.0338 -15.8475  10.3352 H              1 <1>                0.0000
     25 H25          0.9511 -14.6762  11.3177 H              1 <1>                0.0000
     26 H26          2.7414 -15.5579  12.8936 H              1 <1>                0.0000
     27 H27          1.7584 -20.7617  15.6125 H              1 <1>                0.0000
     28 H28          1.1454 -22.9678  14.7065 H              1 <1>                0.0000
     29 H29          0.3466 -23.1669  12.3859 H              1 <1>                0.0000
     30 H30          0.1601 -21.1600  10.9715 H              1 <1>                0.0000
     31 H31          0.7686 -18.9533  11.8789 H              1 <1>                0.0000
     32 H32          0.8844 -17.5666  11.7874 H              1 <1>                0.0000
     33 H33          2.0831 -16.7829  10.9815 H              1 <1>                0.0000
@<TRIPOS>BOND
    1    1    2 1     
    2    1    9 1     
    3    1   16 1     
    4    1   17 1     
    5    2    3 1     
    6    2   10 1     
    7    2   18 1     
    8    3    4 1     
    9    4    5 1     
   10    4    9 1     
   11    4   19 1     
   12    5    6 1     
   13    5   20 1     
   14    5   21 1     
   15    6    7 1     
   16    6   22 1     
   17    6   23 1     
   18    7    8 1     
   19    7   24 1     
   20    7   25 1     
   21    8    9 1     
   22    8   32 1     
   23    8   33 1     
   24    9   26 1     
   25   10   11 ar    
   26   10   15 ar    
   27   11   12 ar    
   28   11   27 1     
   29   12   13 ar    
   30   12   28 1     
   31   13   14 ar    
   32   13   29 1     
   33   14   15 ar    
   34   14   30 1     
   35   15   31 1     
@<TRIPOS>SUBSTRUCTURE
      1 ****           1
@<TRIPOS>SET
DONOR_HYDROGENS      STATIC     ATOMS    <user>   **** ""
2 32 33
ATOM$RED        STATIC     ATOMS    COLORGROUP SYSTEM
2 32 33
@<TRIPOS>COMMENT
> <Gold.Version>
2022.2.0

> <Gold.Id.Protein>
3pbl|protein|mol2

> <Gold.Protein.RotatedTorsions>
[ 1303 1298 1297 1294 ] final   72.03 input  179.99 | X-H torsion
[ 2461 2456 2455 2452 ] final  -64.12 input   30.03 | X-H torsion
[ 2515 2510 2509 2506 ] final  -14.91 input  -89.99 | X-H torsion
[ 3721 3712 3711 3710 ] final   18.16 input -179.91 | X-H torsion
[ 3841 3832 3831 3830 ] final  -21.44 input -179.91 | X-H torsion
[ 3767 3762 3761 3758 ] final  -46.33 input  -89.99 | X-H torsion
[ 2472 2467 2466 2463 ] final -136.39 input  -89.97 | X-H torsion

> <Gold.Protein.ActiveResidues>
 VAL82   VAL86   LEU89   PHE106  VAL107  ASP110  VAL111  MET112  CYS114  THR115 
 CYS181  SER182  ILE183  PHE188  VAL189  ILE190  SER192  SER193  SER196  TRP342 
 PHE345  PHE346  HIS349  VAL350  TYR365  THR369  GLY372  TYR373 

> <Gold.Protein.RotatedAtoms>
    4.1738  -10.2380    4.7365 H   0  0  0  0  0  0  0  0  0  0  0  0  # atno 1303 bound_to 1298
    0.3536   -8.6089    7.4108 H   0  0  0  0  0  0  0  0  0  0  0  0  # atno 2461 bound_to 2456
   -4.7682   -5.4633    9.4067 H   0  0  0  0  0  0  0  0  0  0  0  0  # atno 2472 bound_to 2467
    2.6372   -7.8069    4.4705 H   0  0  0  0  0  0  0  0  0  0  0  0  # atno 2515 bound_to 2510
   -2.4701  -18.0269   13.9786 H   0  0  0  0  0  0  0  0  0  0  0  0  # atno 3721 bound_to 3712
   -5.5063  -22.1785   10.6239 H   0  0  0  0  0  0  0  0  0  0  0  0  # atno 3767 bound_to 3762
    1.5980  -20.2328    9.4170 H   0  0  0  0  0  0  0  0  0  0  0  0  # atno 3841 bound_to 3832
    3.4105   -9.1530    3.7844 LP  0  0  0  0  0  0  0  0  0  0  0  0  # atno 4297 bound_to 1298
    4.7779   -8.7300    4.5705 LP  0  0  0  0  0  0  0  0  0  0  0  0  # atno 4298 bound_to 1298
    1.5143   -9.1936    8.4000 LP  0  0  0  0  0  0  0  0  0  0  0  0  # atno 4299 bound_to 2456
    1.8696   -8.0057    7.3373 LP  0  0  0  0  0  0  0  0  0  0  0  0  # atno 4300 bound_to 2456
    2.6309   -9.2547    5.2252 LP  0  0  0  0  0  0  0  0  0  0  0  0  # atno 4301 bound_to 2510
    2.0285   -7.9378    5.9799 LP  0  0  0  0  0  0  0  0  0  0  0  0  # atno 4302 bound_to 2510
   -3.3232  -16.8569   14.6725 LP  0  0  0  0  0  0  0  0  0  0  0  0  # atno 4306 bound_to 3712
   -3.3526  -17.0571   13.0520 LP  0  0  0  0  0  0  0  0  0  0  0  0  # atno 4307 bound_to 3712
    2.4676  -19.7679    8.1506 LP  0  0  0  0  0  0  0  0  0  0  0  0  # atno 4314 bound_to 3832
    2.9158  -21.0655    9.0349 LP  0  0  0  0  0  0  0  0  0  0  0  0  # atno 4315 bound_to 3832
   -4.2345  -22.3693   11.6304 LP  0  0  0  0  0  0  0  0  0  0  0  0  # atno 4318 bound_to 3762
   -4.3869  -23.3272   10.3167 LP  0  0  0  0  0  0  0  0  0  0  0  0  # atno 4319 bound_to 3762
   -5.2686   -4.9846    7.9279 LP  0  0  0  0  0  0  0  0  0  0  0  0  # atno 4320 bound_to 2467
   -3.6801   -4.9457    8.3047 LP  0  0  0  0  0  0  0  0  0  0  0  0  # atno 4321 bound_to 2467

> <Gold.Score>
     Score     S(PLP)   S(hbond)     S(cho)   S(metal)  DE(clash)   DE(tors)     intcor
     47.38     -41.44       2.00       0.00       0.00       0.00       0.03       0.00

> <Gold.PLP.Fitness>
47.3780

> <Gold.PLP.PLP>
-41.4420

> <Gold.PLP.part.hbond>
-1.0000

> <Gold.PLP.part.metal>
0.0000

> <Gold.PLP.part.buried>
-3.5006

> <Gold.PLP.part.nonpolar>
-37.2714

> <Gold.PLP.part.repulsive>
0.0239

> <Gold.PLP.ligand.clash>
0.0000

> <Gold.PLP.ligand.torsion>
0.0344

> <Gold.PLP.Chemscore.Hbond>
2.0000

> <Gold.PLP.Chemscore.CHOScore>
0.0000

> <Gold.PLP.Chemscore.Metal>
0.0000

> <Gold.Chemscore.Hbonds>
donor molecule, donor type, donor heavy atom, donor atom, acceptor molecule, acceptor atom, score
      L1  H     8    33       P1  1227  2.00

> <Gold.PLP.Chemscore.Internal.Correction>
0.0049

