#       Name:                EN300-266730_i001
#       Creating user name   fsindt
#       Creation time:       Wed Mar  1 03:28:41 2023


#       File generated by GOLD software.
#

@<TRIPOS>MOLECULE
EN300-266730_i001|amine_7|mol2|10229|dock2
    33    35     1
SMALL
USER_CHARGES


@<TRIPOS>ATOM
      1 C1           1.8736 -18.3903  13.6434 C.3            1 <1>                0.0000
      2 C2           0.5336 -18.8773  14.2313 C.3            1 <1>                0.0000
      3 O3          -0.3837 -17.7666  14.1853 O.3            1 <1>                0.0000
      4 C4           0.4223 -16.5808  14.2156 C.3            1 <1>                0.0000
      5 C5          -0.3391 -15.3422  13.7980 C.3            1 <1>                0.0000
      6 C6          -0.7008 -15.3986  12.3123 C.3            1 <1>                0.0000
      7 C7           0.5940 -15.5905  11.5142 C.3            1 <1>                0.0000
      8 N8           1.1809 -16.8818  11.8768 N.4            1 <1>                1.0000
      9 C9           1.6053 -16.9001  13.2819 C.3            1 <1>                0.0000
     10 C10         -0.0027 -20.0192  13.4069 C.ar           1 <1>                0.0000
     11 C11         -1.1925 -20.6277  13.7603 C.ar           1 <1>                0.0000
     12 C12         -1.6844 -21.6752  13.0043 C.ar           1 <1>                0.0000
     13 C13         -0.9867 -22.1139  11.8944 C.ar           1 <1>                0.0000
     14 C14          0.2027 -21.5048  11.5406 C.ar           1 <1>                0.0000
     15 C15          0.6924 -20.4545  12.2941 C.ar           1 <1>                0.0000
     16 H16          2.6672 -18.4664  14.3867 H              1 <1>                0.0000
     17 H17          2.1289 -18.9604  12.7502 H              1 <1>                0.0000
     18 H18          0.6763 -19.1976  15.2633 H              1 <1>                0.0000
     19 H19          0.8093 -16.4389  15.2247 H              1 <1>                0.0000
     20 H20         -1.2533 -15.2680  14.3867 H              1 <1>                0.0000
     21 H21          0.2778 -14.4629  13.9834 H              1 <1>                0.0000
     22 H22         -1.3738 -16.2360  12.1288 H              1 <1>                0.0000
     23 H23         -1.1819 -14.4668  12.0149 H              1 <1>                0.0000
     24 H24          0.3714 -15.5767  10.4471 H              1 <1>                0.0000
     25 H25          1.2939 -14.7902  11.7545 H              1 <1>                0.0000
     26 H26          2.4718 -16.2633  13.4599 H              1 <1>                0.0000
     27 H27         -1.7376 -20.2849  14.6274 H              1 <1>                0.0000
     28 H28         -2.6137 -22.1510  13.2807 H              1 <1>                0.0000
     29 H29         -1.3707 -22.9327  11.3041 H              1 <1>                0.0000
     30 H30          0.7480 -21.8478  10.6737 H              1 <1>                0.0000
     31 H31          1.6217 -19.9786  12.0176 H              1 <1>                0.0000
     32 H32          0.4969 -17.6087  11.7289 H              1 <1>                0.0000
     33 H33          1.9811 -17.0580  11.2879 H              1 <1>                0.0000
@<TRIPOS>BOND
    1    1    2 1     
    2    1    9 1     
    3    1   16 1     
    4    1   17 1     
    5    2    3 1     
    6    2   10 1     
    7    2   18 1     
    8    3    4 1     
    9    4    5 1     
   10    4    9 1     
   11    4   19 1     
   12    5    6 1     
   13    5   20 1     
   14    5   21 1     
   15    6    7 1     
   16    6   22 1     
   17    6   23 1     
   18    7    8 1     
   19    7   24 1     
   20    7   25 1     
   21    8    9 1     
   22    8   32 1     
   23    8   33 1     
   24    9   26 1     
   25   10   11 ar    
   26   10   15 ar    
   27   11   12 ar    
   28   11   27 1     
   29   12   13 ar    
   30   12   28 1     
   31   13   14 ar    
   32   13   29 1     
   33   14   15 ar    
   34   14   30 1     
   35   15   31 1     
@<TRIPOS>SUBSTRUCTURE
      1 ****           1
@<TRIPOS>SET
DONOR_HYDROGENS      STATIC     ATOMS    <user>   **** ""
2 32 33
ATOM$RED        STATIC     ATOMS    COLORGROUP SYSTEM
2 32 33
@<TRIPOS>COMMENT
> <Gold.Version>
2022.2.0

> <Gold.Id.Protein>
3pbl|protein|mol2

> <Gold.Protein.RotatedTorsions>
[ 1303 1298 1297 1294 ] final  133.99 input  179.99 | X-H torsion
[ 2461 2456 2455 2452 ] final  -58.04 input   30.03 | X-H torsion
[ 2515 2510 2509 2506 ] final   37.92 input  -89.99 | X-H torsion
[ 3721 3712 3711 3710 ] final   14.08 input -179.91 | X-H torsion
[ 3841 3832 3831 3830 ] final  154.75 input -179.91 | X-H torsion
[ 3767 3762 3761 3758 ] final -143.51 input  -89.99 | X-H torsion
[ 2472 2467 2466 2463 ] final -145.52 input  -89.97 | X-H torsion

> <Gold.Protein.ActiveResidues>
 VAL82   VAL86   LEU89   PHE106  VAL107  ASP110  VAL111  MET112  CYS114  THR115 
 CYS181  SER182  ILE183  PHE188  VAL189  ILE190  SER192  SER193  SER196  TRP342 
 PHE345  PHE346  HIS349  VAL350  TYR365  THR369  GLY372  TYR373 

> <Gold.Protein.RotatedAtoms>
    4.8422   -9.5645    4.9397 H   0  0  0  0  0  0  0  0  0  0  0  0  # atno 1303 bound_to 1298
    0.3804   -8.5362    7.3475 H   0  0  0  0  0  0  0  0  0  0  0  0  # atno 2461 bound_to 2456
   -4.9112   -5.4627    9.3613 H   0  0  0  0  0  0  0  0  0  0  0  0  # atno 2472 bound_to 2467
    2.2792   -7.4095    5.1162 H   0  0  0  0  0  0  0  0  0  0  0  0  # atno 2515 bound_to 2510
   -2.4701  -18.0174   14.0397 H   0  0  0  0  0  0  0  0  0  0  0  0  # atno 3721 bound_to 3712
   -4.5219  -22.1316   11.6385 H   0  0  0  0  0  0  0  0  0  0  0  0  # atno 3767 bound_to 3762
    3.1107  -20.3496    8.5850 H   0  0  0  0  0  0  0  0  0  0  0  0  # atno 3841 bound_to 3832
    3.4791  -10.0385    4.1757 LP  0  0  0  0  0  0  0  0  0  0  0  0  # atno 4297 bound_to 1298
    4.0406   -8.5182    3.9759 LP  0  0  0  0  0  0  0  0  0  0  0  0  # atno 4298 bound_to 1298
    1.4201   -9.2271    8.4006 LP  0  0  0  0  0  0  0  0  0  0  0  0  # atno 4299 bound_to 2456
    1.9370   -8.0448    7.3999 LP  0  0  0  0  0  0  0  0  0  0  0  0  # atno 4300 bound_to 2456
    2.8322   -8.8297    4.5307 LP  0  0  0  0  0  0  0  0  0  0  0  0  # atno 4301 bound_to 2510
    2.1854   -8.7603    6.0285 LP  0  0  0  0  0  0  0  0  0  0  0  0  # atno 4302 bound_to 2510
   -3.3524  -16.8126   14.6295 LP  0  0  0  0  0  0  0  0  0  0  0  0  # atno 4306 bound_to 3712
   -3.3234  -17.1123   13.0245 LP  0  0  0  0  0  0  0  0  0  0  0  0  # atno 4307 bound_to 3712
    1.9947  -20.9944    9.5416 LP  0  0  0  0  0  0  0  0  0  0  0  0  # atno 4314 bound_to 3832
    1.6413  -19.7041    8.6051 LP  0  0  0  0  0  0  0  0  0  0  0  0  # atno 4315 bound_to 3832
   -4.1272  -23.3148   10.5844 LP  0  0  0  0  0  0  0  0  0  0  0  0  # atno 4318 bound_to 3762
   -5.4782  -22.4285   10.3485 LP  0  0  0  0  0  0  0  0  0  0  0  0  # atno 4319 bound_to 3762
   -5.1601   -4.9391    7.8348 LP  0  0  0  0  0  0  0  0  0  0  0  0  # atno 4320 bound_to 2467
   -3.6456   -4.9918    8.4432 LP  0  0  0  0  0  0  0  0  0  0  0  0  # atno 4321 bound_to 2467

> <Gold.Score>
     Score     S(PLP)   S(hbond)     S(cho)   S(metal)  DE(clash)   DE(tors)     intcor
     46.76     -38.78       2.86       0.00       0.00       0.57       0.01       0.00

> <Gold.PLP.Fitness>
46.7627

> <Gold.PLP.PLP>
-38.7782

> <Gold.PLP.part.hbond>
-2.0000

> <Gold.PLP.part.metal>
0.0000

> <Gold.PLP.part.buried>
-4.3426

> <Gold.PLP.part.nonpolar>
-31.6772

> <Gold.PLP.part.repulsive>
0.0042

> <Gold.PLP.ligand.clash>
0.5680

> <Gold.PLP.ligand.torsion>
0.0107

> <Gold.PLP.Chemscore.Hbond>
2.8563

> <Gold.PLP.Chemscore.CHOScore>
0.0000

> <Gold.PLP.Chemscore.Metal>
0.0000

> <Gold.Chemscore.Hbonds>
donor molecule, donor type, donor heavy atom, donor atom, acceptor molecule, acceptor atom, score
      L1  H     8    33       P1  1227  1.98
      P1  H  3712  3721       L1     3  0.87

> <Gold.PLP.Chemscore.Internal.Correction>
0.0049

