#       Name:                EN300-266730_i001
#       Creating user name   fsindt
#       Creation time:       Wed Mar  1 03:28:45 2023


#       File generated by GOLD software.
#

@<TRIPOS>MOLECULE
EN300-266730_i001|amine_7|mol2|10229|dock15
    33    35     1
SMALL
USER_CHARGES


@<TRIPOS>ATOM
      1 C1           0.1945 -20.0912  11.4231 C.3            1 <1>                0.0000
      2 C2          -0.6958 -19.0267  12.0958 C.3            1 <1>                0.0000
      3 O3          -1.3124 -19.6456  13.2421 O.3            1 <1>                0.0000
      4 C4          -1.3648 -21.0503  12.9581 C.3            1 <1>                0.0000
      5 C5          -1.6301 -21.8889  14.1889 C.3            1 <1>                0.0000
      6 C6          -0.4402 -21.8403  15.1497 C.3            1 <1>                0.0000
      7 C7           0.8079 -22.2959  14.3849 C.3            1 <1>                0.0000
      8 N8           1.0704 -21.3422  13.3056 N.4            1 <1>                1.0000
      9 C9          -0.0038 -21.3583  12.3054 C.3            1 <1>                0.0000
     10 C10          0.1473 -17.8577  12.5362 C.ar           1 <1>                0.0000
     11 C11          1.2041 -18.0562  13.4048 C.ar           1 <1>                0.0000
     12 C12          1.9774 -16.9840  13.8089 C.ar           1 <1>                0.0000
     13 C13          1.6941 -15.7133  13.3439 C.ar           1 <1>                0.0000
     14 C14          0.6377 -15.5151  12.4746 C.ar           1 <1>                0.0000
     15 C15         -0.1329 -16.5879  12.0672 C.ar           1 <1>                0.0000
     16 H16         -0.1397 -20.2797  10.4028 H              1 <1>                0.0000
     17 H17          1.2385 -19.7781  11.4328 H              1 <1>                0.0000
     18 H18         -1.4631 -18.6908  11.3983 H              1 <1>                0.0000
     19 H19         -2.1484 -21.2363  12.2236 H              1 <1>                0.0000
     20 H20         -2.5165 -21.5092  14.6969 H              1 <1>                0.0000
     21 H21         -1.8055 -22.9217  13.8878 H              1 <1>                0.0000
     22 H22         -0.2994 -20.8213  15.5101 H              1 <1>                0.0000
     23 H23         -0.6199 -22.5079  15.9923 H              1 <1>                0.0000
     24 H24          1.6614 -22.3257  15.0623 H              1 <1>                0.0000
     25 H25          0.6375 -23.2868  13.9640 H              1 <1>                0.0000
     26 H26         -0.0105 -22.2786  11.7213 H              1 <1>                0.0000
     27 H27          1.4255 -19.0489  13.7681 H              1 <1>                0.0000
     28 H28          2.8027 -17.1389  14.4880 H              1 <1>                0.0000
     29 H29          2.2977 -14.8755  13.6601 H              1 <1>                0.0000
     30 H30          0.4161 -14.5223  12.1116 H              1 <1>                0.0000
     31 H31         -0.9582 -16.4330  11.3879 H              1 <1>                0.0000
     32 H32          1.1448 -20.4145  13.6955 H              1 <1>                0.0000
     33 H33          1.9422 -21.5818  12.8578 H              1 <1>                0.0000
@<TRIPOS>BOND
    1    1    2 1     
    2    1    9 1     
    3    1   16 1     
    4    1   17 1     
    5    2    3 1     
    6    2   10 1     
    7    2   18 1     
    8    3    4 1     
    9    4    5 1     
   10    4    9 1     
   11    4   19 1     
   12    5    6 1     
   13    5   20 1     
   14    5   21 1     
   15    6    7 1     
   16    6   22 1     
   17    6   23 1     
   18    7    8 1     
   19    7   24 1     
   20    7   25 1     
   21    8    9 1     
   22    8   32 1     
   23    8   33 1     
   24    9   26 1     
   25   10   11 ar    
   26   10   15 ar    
   27   11   12 ar    
   28   11   27 1     
   29   12   13 ar    
   30   12   28 1     
   31   13   14 ar    
   32   13   29 1     
   33   14   15 ar    
   34   14   30 1     
   35   15   31 1     
@<TRIPOS>SUBSTRUCTURE
      1 ****           1
@<TRIPOS>SET
DONOR_HYDROGENS      STATIC     ATOMS    <user>   **** ""
2 32 33
ATOM$RED        STATIC     ATOMS    COLORGROUP SYSTEM
2 32 33
@<TRIPOS>COMMENT
> <Gold.Version>
2022.2.0

> <Gold.Id.Protein>
3pbl|protein|mol2

> <Gold.Protein.RotatedTorsions>
[ 1303 1298 1297 1294 ] final   -4.76 input  179.99 | X-H torsion
[ 2461 2456 2455 2452 ] final   14.32 input   30.03 | X-H torsion
[ 2515 2510 2509 2506 ] final  -27.91 input  -89.99 | X-H torsion
[ 3721 3712 3711 3710 ] final   21.04 input -179.91 | X-H torsion
[ 3841 3832 3831 3830 ] final -121.42 input -179.91 | X-H torsion
[ 3767 3762 3761 3758 ] final  130.32 input  -89.99 | X-H torsion
[ 2472 2467 2466 2463 ] final   49.43 input  -89.97 | X-H torsion

> <Gold.Protein.ActiveResidues>
 VAL82   VAL86   LEU89   PHE106  VAL107  ASP110  VAL111  MET112  CYS114  THR115 
 CYS181  SER182  ILE183  PHE188  VAL189  ILE190  SER192  SER193  SER196  TRP342 
 PHE345  PHE346  HIS349  VAL350  TYR365  THR369  GLY372  TYR373 

> <Gold.Protein.RotatedAtoms>
    3.3643   -9.8089    4.0075 H   0  0  0  0  0  0  0  0  0  0  0  0  # atno 1303 bound_to 1298
    1.2680   -7.9318    7.0536 H   0  0  0  0  0  0  0  0  0  0  0  0  # atno 2461 bound_to 2456
   -4.4704   -4.8040    7.6681 H   0  0  0  0  0  0  0  0  0  0  0  0  # atno 2472 bound_to 2467
    2.7102   -7.9913    4.3919 H   0  0  0  0  0  0  0  0  0  0  0  0  # atno 2515 bound_to 2510
   -2.4715  -18.0312   13.9353 H   0  0  0  0  0  0  0  0  0  0  0  0  # atno 3721 bound_to 3712
   -3.9180  -23.1025   11.0448 H   0  0  0  0  0  0  0  0  0  0  0  0  # atno 3767 bound_to 3762
    2.2430  -19.5971    8.4485 H   0  0  0  0  0  0  0  0  0  0  0  0  # atno 3841 bound_to 3832
    4.2979   -8.4756    4.1383 LP  0  0  0  0  0  0  0  0  0  0  0  0  # atno 4297 bound_to 1298
    4.7002   -9.8367    4.9460 LP  0  0  0  0  0  0  0  0  0  0  0  0  # atno 4298 bound_to 1298
    0.4424   -9.0624    7.8948 LP  0  0  0  0  0  0  0  0  0  0  0  0  # atno 4299 bound_to 2456
    2.0273   -8.8137    8.1996 LP  0  0  0  0  0  0  0  0  0  0  0  0  # atno 4300 bound_to 2456
    2.5467   -9.2481    5.4213 LP  0  0  0  0  0  0  0  0  0  0  0  0  # atno 4301 bound_to 2510
    2.0397   -7.7599    5.8625 LP  0  0  0  0  0  0  0  0  0  0  0  0  # atno 4302 bound_to 2510
   -3.3019  -16.8898   14.7004 LP  0  0  0  0  0  0  0  0  0  0  0  0  # atno 4306 bound_to 3712
   -3.3724  -17.0191   13.0741 LP  0  0  0  0  0  0  0  0  0  0  0  0  # atno 4307 bound_to 3712
    3.0540  -20.9293    8.8274 LP  0  0  0  0  0  0  0  0  0  0  0  0  # atno 4314 bound_to 3832
    1.5843  -20.6384    9.4770 LP  0  0  0  0  0  0  0  0  0  0  0  0  # atno 4315 bound_to 3832
   -5.2210  -22.8419   10.0956 LP  0  0  0  0  0  0  0  0  0  0  0  0  # atno 4318 bound_to 3762
   -4.9881  -21.9308   11.4307 LP  0  0  0  0  0  0  0  0  0  0  0  0  # atno 4319 bound_to 3762
   -3.8159   -5.2462    9.0972 LP  0  0  0  0  0  0  0  0  0  0  0  0  # atno 4320 bound_to 2467
   -5.4306   -5.3433    8.8737 LP  0  0  0  0  0  0  0  0  0  0  0  0  # atno 4321 bound_to 2467

> <Gold.Score>
     Score     S(PLP)   S(hbond)     S(cho)   S(metal)  DE(clash)   DE(tors)     intcor
     38.81     -35.86       0.98       0.00       0.00       0.00       0.00       0.00

> <Gold.PLP.Fitness>
38.8061

> <Gold.PLP.PLP>
-35.8609

> <Gold.PLP.part.hbond>
-1.0000

> <Gold.PLP.part.metal>
0.0000

> <Gold.PLP.part.buried>
-4.1442

> <Gold.PLP.part.nonpolar>
-31.6054

> <Gold.PLP.part.repulsive>
0.0000

> <Gold.PLP.ligand.clash>
0.0000

> <Gold.PLP.ligand.torsion>
0.0048

> <Gold.PLP.Chemscore.Hbond>
0.9833

> <Gold.PLP.Chemscore.CHOScore>
0.0000

> <Gold.PLP.Chemscore.Metal>
0.0000

> <Gold.Chemscore.Hbonds>
donor molecule, donor type, donor heavy atom, donor atom, acceptor molecule, acceptor atom, score
      P1  H  3712  3721       L1     3  0.98

> <Gold.PLP.Chemscore.Internal.Correction>
0.0048

