#       Name:                EN300-266730_i001
#       Creating user name   fsindt
#       Creation time:       Wed Mar  1 03:28:47 2023


#       File generated by GOLD software.
#

@<TRIPOS>MOLECULE
EN300-266730_i001|amine_7|mol2|10229|dock19
    33    35     1
SMALL
USER_CHARGES


@<TRIPOS>ATOM
      1 C1          -0.8664 -18.3476   9.9652 C.3            1 <1>                0.0000
      2 C2          -0.8609 -16.8832  10.4487 C.3            1 <1>                0.0000
      3 O3          -0.2476 -16.8646  11.7529 O.3            1 <1>                0.0000
      4 C4          -0.4579 -18.1683  12.3122 C.3            1 <1>                0.0000
      5 C5           0.4331 -18.4476  13.5024 C.3            1 <1>                0.0000
      6 C6           1.8979 -18.5582  13.0739 C.3            1 <1>                0.0000
      7 C7           1.9978 -19.6440  11.9963 C.3            1 <1>                0.0000
      8 N8           1.2253 -19.2175  10.8281 N.4            1 <1>                1.0000
      9 C9          -0.2072 -19.1323  11.1370 C.3            1 <1>                0.0000
     10 C10         -0.0631 -16.0317   9.4951 C.ar           1 <1>                0.0000
     11 C11         -0.1451 -16.2564   8.1337 C.ar           1 <1>                0.0000
     12 C12          0.5868 -15.4754   7.2589 C.ar           1 <1>                0.0000
     13 C13          1.4005 -14.4694   7.7456 C.ar           1 <1>                0.0000
     14 C14          1.4818 -14.2441   9.1070 C.ar           1 <1>                0.0000
     15 C15          0.7466 -15.0223   9.9815 C.ar           1 <1>                0.0000
     16 H16         -1.8874 -18.6921   9.8009 H              1 <1>                0.0000
     17 H17         -0.2756 -18.4519   9.0551 H              1 <1>                0.0000
     18 H18         -1.8832 -16.5109  10.5146 H              1 <1>                0.0000
     19 H19         -1.5003 -18.2613  12.6169 H              1 <1>                0.0000
     20 H20          0.3312 -17.6373  14.2242 H              1 <1>                0.0000
     21 H21          0.1248 -19.3830  13.9691 H              1 <1>                0.0000
     22 H22          2.2357 -17.6047  12.6681 H              1 <1>                0.0000
     23 H23          2.5125 -18.8326  13.9312 H              1 <1>                0.0000
     24 H24          3.0412 -19.7839  11.7135 H              1 <1>                0.0000
     25 H25          1.5923 -20.5797  12.3812 H              1 <1>                0.0000
     26 H26         -0.6562 -20.1139  11.2886 H              1 <1>                0.0000
     27 H27         -0.7807 -17.0424   7.7534 H              1 <1>                0.0000
     28 H28          0.5233 -15.6514   6.1952 H              1 <1>                0.0000
     29 H29          1.9728 -13.8597   7.0623 H              1 <1>                0.0000
     30 H30          2.1177 -13.4584   9.4873 H              1 <1>                0.0000
     31 H31          0.8101 -14.8463  11.0452 H              1 <1>                0.0000
     32 H32          1.5529 -18.3114  10.5284 H              1 <1>                0.0000
     33 H33          1.3630 -19.8811  10.0807 H              1 <1>                0.0000
@<TRIPOS>BOND
    1    1    2 1     
    2    1    9 1     
    3    1   16 1     
    4    1   17 1     
    5    2    3 1     
    6    2   10 1     
    7    2   18 1     
    8    3    4 1     
    9    4    5 1     
   10    4    9 1     
   11    4   19 1     
   12    5    6 1     
   13    5   20 1     
   14    5   21 1     
   15    6    7 1     
   16    6   22 1     
   17    6   23 1     
   18    7    8 1     
   19    7   24 1     
   20    7   25 1     
   21    8    9 1     
   22    8   32 1     
   23    8   33 1     
   24    9   26 1     
   25   10   11 ar    
   26   10   15 ar    
   27   11   12 ar    
   28   11   27 1     
   29   12   13 ar    
   30   12   28 1     
   31   13   14 ar    
   32   13   29 1     
   33   14   15 ar    
   34   14   30 1     
   35   15   31 1     
@<TRIPOS>SUBSTRUCTURE
      1 ****           1
@<TRIPOS>SET
DONOR_HYDROGENS      STATIC     ATOMS    <user>   **** ""
2 32 33
ATOM$RED        STATIC     ATOMS    COLORGROUP SYSTEM
2 32 33
@<TRIPOS>COMMENT
> <Gold.Version>
2022.2.0

> <Gold.Id.Protein>
3pbl|protein|mol2

> <Gold.Protein.RotatedTorsions>
[ 1303 1298 1297 1294 ] final   94.46 input  179.99 | X-H torsion
[ 2461 2456 2455 2452 ] final  -79.15 input   30.03 | X-H torsion
[ 2515 2510 2509 2506 ] final   57.39 input  -89.99 | X-H torsion
[ 3721 3712 3711 3710 ] final -150.03 input -179.91 | X-H torsion
[ 3841 3832 3831 3830 ] final  137.74 input -179.91 | X-H torsion
[ 3767 3762 3761 3758 ] final  -37.58 input  -89.99 | X-H torsion
[ 2472 2467 2466 2463 ] final   18.40 input  -89.97 | X-H torsion

> <Gold.Protein.ActiveResidues>
 VAL82   VAL86   LEU89   PHE106  VAL107  ASP110  VAL111  MET112  CYS114  THR115 
 CYS181  SER182  ILE183  PHE188  VAL189  ILE190  SER192  SER193  SER196  TRP342 
 PHE345  PHE346  HIS349  VAL350  TYR365  THR369  GLY372  TYR373 

> <Gold.Protein.RotatedAtoms>
    4.4709  -10.0795    4.8815 H   0  0  0  0  0  0  0  0  0  0  0  0  # atno 1303 bound_to 1298
    0.3309   -8.7866    7.5804 H   0  0  0  0  0  0  0  0  0  0  0  0  # atno 2461 bound_to 2456
   -4.0043   -4.8220    7.8603 H   0  0  0  0  0  0  0  0  0  0  0  0  # atno 2472 bound_to 2467
    2.1635   -7.4490    5.4105 H   0  0  0  0  0  0  0  0  0  0  0  0  # atno 2515 bound_to 2510
   -3.3262  -16.5314   13.9881 H   0  0  0  0  0  0  0  0  0  0  0  0  # atno 3721 bound_to 3712
   -5.5104  -22.2679   10.5112 H   0  0  0  0  0  0  0  0  0  0  0  0  # atno 3767 bound_to 3762
    3.1321  -20.5461    8.7477 H   0  0  0  0  0  0  0  0  0  0  0  0  # atno 3841 bound_to 3832
    3.3312   -9.5019    3.8647 LP  0  0  0  0  0  0  0  0  0  0  0  0  # atno 4297 bound_to 1298
    4.5600   -8.5397    4.3452 LP  0  0  0  0  0  0  0  0  0  0  0  0  # atno 4298 bound_to 1298
    1.7320   -9.0830    8.3655 LP  0  0  0  0  0  0  0  0  0  0  0  0  # atno 4299 bound_to 2456
    1.6745   -7.9386    7.2022 LP  0  0  0  0  0  0  0  0  0  0  0  0  # atno 4300 bound_to 2456
    2.8274   -8.5413    4.3948 LP  0  0  0  0  0  0  0  0  0  0  0  0  # atno 4301 bound_to 2510
    2.3060   -9.0092    5.8699 LP  0  0  0  0  0  0  0  0  0  0  0  0  # atno 4302 bound_to 2510
   -2.9419  -17.7745   13.0475 LP  0  0  0  0  0  0  0  0  0  0  0  0  # atno 4306 bound_to 3712
   -2.7456  -17.8660   14.6661 LP  0  0  0  0  0  0  0  0  0  0  0  0  # atno 4307 bound_to 3712
    1.7640  -20.8303    9.5375 LP  0  0  0  0  0  0  0  0  0  0  0  0  # atno 4314 bound_to 3832
    1.8473  -19.6412    8.4213 LP  0  0  0  0  0  0  0  0  0  0  0  0  # atno 4315 bound_to 3832
   -4.3384  -22.2714   11.6484 LP  0  0  0  0  0  0  0  0  0  0  0  0  # atno 4318 bound_to 3762
   -4.2789  -23.3357   10.4114 LP  0  0  0  0  0  0  0  0  0  0  0  0  # atno 4319 bound_to 3762
   -4.2100   -5.3905    9.3772 LP  0  0  0  0  0  0  0  0  0  0  0  0  # atno 4320 bound_to 2467
   -5.5025   -5.1810    8.4015 LP  0  0  0  0  0  0  0  0  0  0  0  0  # atno 4321 bound_to 2467

> <Gold.Score>
     Score     S(PLP)   S(hbond)     S(cho)   S(metal)  DE(clash)   DE(tors)     intcor
     40.58     -33.66       2.73       0.00       0.00       0.00       0.63       0.00

> <Gold.PLP.Fitness>
40.5850

> <Gold.PLP.PLP>
-33.6626

> <Gold.PLP.part.hbond>
-1.8567

> <Gold.PLP.part.metal>
0.0000

> <Gold.PLP.part.buried>
-1.0528

> <Gold.PLP.part.nonpolar>
-31.6278

> <Gold.PLP.part.repulsive>
0.0840

> <Gold.PLP.ligand.clash>
0.0000

> <Gold.PLP.ligand.torsion>
0.6332

> <Gold.PLP.Chemscore.Hbond>
2.7280

> <Gold.PLP.Chemscore.CHOScore>
0.0000

> <Gold.PLP.Chemscore.Metal>
0.0000

> <Gold.Chemscore.Hbonds>
donor molecule, donor type, donor heavy atom, donor atom, acceptor molecule, acceptor atom, score
      L1  H     8    32       P1  1227  1.73
      L1  H     8    33       P1  3832  1.00

> <Gold.PLP.Chemscore.Internal.Correction>
0.0048

