#       Name:                EN300-266730_i001
#       Creating user name   fsindt
#       Creation time:       Wed Mar  1 03:28:43 2023


#       File generated by GOLD software.
#

@<TRIPOS>MOLECULE
EN300-266730_i001|amine_7|mol2|10229|dock10
    33    35     1
SMALL
USER_CHARGES


@<TRIPOS>ATOM
      1 C1          -0.5858 -19.4386  11.8574 C.3            1 <1>                0.0000
      2 C2           0.7143 -20.2641  11.9403 C.3            1 <1>                0.0000
      3 O3           1.7035 -19.4419  12.5905 O.3            1 <1>                0.0000
      4 C4           1.3212 -18.0827  12.3396 C.3            1 <1>                0.0000
      5 C5           2.0202 -17.0981  13.2509 C.3            1 <1>                0.0000
      6 C6           1.5466 -17.2612  14.6968 C.3            1 <1>                0.0000
      7 C7           0.0218 -17.1034  14.7188 C.3            1 <1>                0.0000
      8 N8          -0.5728 -18.1861  13.9328 N.4            1 <1>                1.0000
      9 C9          -0.2093 -18.0786  12.5147 C.3            1 <1>                0.0000
     10 C10          0.4766 -21.5145  12.7472 C.ar           1 <1>                0.0000
     11 C11         -0.5789 -22.3498  12.4327 C.ar           1 <1>                0.0000
     12 C12         -0.7970 -23.4968  13.1728 C.ar           1 <1>                0.0000
     13 C13          0.0408 -23.8087  14.2273 C.ar           1 <1>                0.0000
     14 C14          1.0969 -22.9738  14.5411 C.ar           1 <1>                0.0000
     15 C15          1.3175 -21.8290  13.7983 C.ar           1 <1>                0.0000
     16 H16         -0.8801 -19.2925  10.8181 H              1 <1>                0.0000
     17 H17         -1.3842 -19.9257  12.4171 H              1 <1>                0.0000
     18 H18          1.0513 -20.5262  10.9374 H              1 <1>                0.0000
     19 H19          1.5495 -17.8340  11.3032 H              1 <1>                0.0000
     20 H20          3.0957 -17.2685  13.2049 H              1 <1>                0.0000
     21 H21          1.8042 -16.0838  12.9155 H              1 <1>                0.0000
     22 H22          1.8195 -18.2504  15.0642 H              1 <1>                0.0000
     23 H23          2.0050 -16.4958  15.3229 H              1 <1>                0.0000
     24 H24         -0.3368 -17.1582  15.7467 H              1 <1>                0.0000
     25 H25         -0.2527 -16.1423  14.2840 H              1 <1>                0.0000
     26 H26         -0.6910 -17.2306  12.0279 H              1 <1>                0.0000
     27 H27         -1.2335 -22.1062  11.6089 H              1 <1>                0.0000
     28 H28         -1.6220 -24.1491  12.9275 H              1 <1>                0.0000
     29 H29         -0.1299 -24.7043  14.8059 H              1 <1>                0.0000
     30 H30          1.7512 -23.2172  15.3652 H              1 <1>                0.0000
     31 H31          2.1426 -21.1768  14.0435 H              1 <1>                0.0000
     32 H32         -0.2473 -19.0714  14.2910 H              1 <1>                0.0000
     33 H33         -1.5771 -18.1447  14.0203 H              1 <1>                0.0000
@<TRIPOS>BOND
    1    1    2 1     
    2    1    9 1     
    3    1   16 1     
    4    1   17 1     
    5    2    3 1     
    6    2   10 1     
    7    2   18 1     
    8    3    4 1     
    9    4    5 1     
   10    4    9 1     
   11    4   19 1     
   12    5    6 1     
   13    5   20 1     
   14    5   21 1     
   15    6    7 1     
   16    6   22 1     
   17    6   23 1     
   18    7    8 1     
   19    7   24 1     
   20    7   25 1     
   21    8    9 1     
   22    8   32 1     
   23    8   33 1     
   24    9   26 1     
   25   10   11 ar    
   26   10   15 ar    
   27   11   12 ar    
   28   11   27 1     
   29   12   13 ar    
   30   12   28 1     
   31   13   14 ar    
   32   13   29 1     
   33   14   15 ar    
   34   14   30 1     
   35   15   31 1     
@<TRIPOS>SUBSTRUCTURE
      1 ****           1
@<TRIPOS>SET
DONOR_HYDROGENS      STATIC     ATOMS    <user>   **** ""
2 32 33
ATOM$RED        STATIC     ATOMS    COLORGROUP SYSTEM
2 32 33
@<TRIPOS>COMMENT
> <Gold.Version>
2022.2.0

> <Gold.Id.Protein>
3pbl|protein|mol2

> <Gold.Protein.RotatedTorsions>
[ 1303 1298 1297 1294 ] final  156.55 input  179.99 | X-H torsion
[ 2461 2456 2455 2452 ] final   94.04 input   30.03 | X-H torsion
[ 2515 2510 2509 2506 ] final  -21.12 input  -89.99 | X-H torsion
[ 3721 3712 3711 3710 ] final -171.15 input -179.91 | X-H torsion
[ 3841 3832 3831 3830 ] final  -79.91 input -179.91 | X-H torsion
[ 3767 3762 3761 3758 ] final  143.07 input  -89.99 | X-H torsion
[ 2472 2467 2466 2463 ] final  -20.50 input  -89.97 | X-H torsion

> <Gold.Protein.ActiveResidues>
 VAL82   VAL86   LEU89   PHE106  VAL107  ASP110  VAL111  MET112  CYS114  THR115 
 CYS181  SER182  ILE183  PHE188  VAL189  ILE190  SER192  SER193  SER196  TRP342 
 PHE345  PHE346  HIS349  VAL350  TYR365  THR369  GLY372  TYR373 

> <Gold.Protein.RotatedAtoms>
    4.9113   -9.2132    4.8514 H   0  0  0  0  0  0  0  0  0  0  0  0  # atno 1303 bound_to 1298
    2.1505   -8.3417    7.7711 H   0  0  0  0  0  0  0  0  0  0  0  0  # atno 2461 bound_to 2456
   -3.6617   -4.9665    8.3661 H   0  0  0  0  0  0  0  0  0  0  0  0  # atno 2472 bound_to 2467
    2.6737   -7.8923    4.4278 H   0  0  0  0  0  0  0  0  0  0  0  0  # atno 2515 bound_to 2510
   -3.3354  -16.5644   13.6724 H   0  0  0  0  0  0  0  0  0  0  0  0  # atno 3721 bound_to 3712
   -3.9078  -22.9745   11.2104 H   0  0  0  0  0  0  0  0  0  0  0  0  # atno 3767 bound_to 3762
    1.7529  -19.6635    8.8114 H   0  0  0  0  0  0  0  0  0  0  0  0  # atno 3841 bound_to 3832
    3.7059  -10.2195    4.4036 LP  0  0  0  0  0  0  0  0  0  0  0  0  # atno 4297 bound_to 1298
    3.7446   -8.6887    3.8364 LP  0  0  0  0  0  0  0  0  0  0  0  0  # atno 4298 bound_to 1298
    0.6713   -8.1839    7.0970 LP  0  0  0  0  0  0  0  0  0  0  0  0  # atno 4299 bound_to 2456
    0.9163   -9.2825    8.2801 LP  0  0  0  0  0  0  0  0  0  0  0  0  # atno 4300 bound_to 2456
    2.5917   -9.2575    5.3196 LP  0  0  0  0  0  0  0  0  0  0  0  0  # atno 4301 bound_to 2510
    2.0313   -7.8496    5.9283 LP  0  0  0  0  0  0  0  0  0  0  0  0  # atno 4302 bound_to 2510
   -2.7867  -18.0136   13.2523 LP  0  0  0  0  0  0  0  0  0  0  0  0  # atno 4306 bound_to 3712
   -2.8902  -17.5888   14.8257 LP  0  0  0  0  0  0  0  0  0  0  0  0  # atno 4307 bound_to 3712
    3.0874  -20.4349    8.3640 LP  0  0  0  0  0  0  0  0  0  0  0  0  # atno 4314 bound_to 3832
    2.1171  -21.0562    9.5212 LP  0  0  0  0  0  0  0  0  0  0  0  0  # atno 4315 bound_to 3832
   -5.0720  -22.9860   10.0653 LP  0  0  0  0  0  0  0  0  0  0  0  0  # atno 4318 bound_to 3762
   -5.1473  -21.9147   11.2955 LP  0  0  0  0  0  0  0  0  0  0  0  0  # atno 4319 bound_to 3762
   -4.8333   -5.4634    9.3892 LP  0  0  0  0  0  0  0  0  0  0  0  0  # atno 4320 bound_to 2467
   -5.2217   -4.9636    7.8839 LP  0  0  0  0  0  0  0  0  0  0  0  0  # atno 4321 bound_to 2467

> <Gold.Score>
     Score     S(PLP)   S(hbond)     S(cho)   S(metal)  DE(clash)   DE(tors)     intcor
     43.36     -40.69       1.00       0.00       0.00       0.00       0.17       0.00

> <Gold.PLP.Fitness>
43.3603

> <Gold.PLP.PLP>
-40.6874

> <Gold.PLP.part.hbond>
-1.0000

> <Gold.PLP.part.metal>
0.0000

> <Gold.PLP.part.buried>
-2.9068

> <Gold.PLP.part.nonpolar>
-37.3000

> <Gold.PLP.part.repulsive>
0.0720

> <Gold.PLP.ligand.clash>
0.0000

> <Gold.PLP.ligand.torsion>
0.1660

> <Gold.PLP.Chemscore.Hbond>
1.0000

> <Gold.PLP.Chemscore.CHOScore>
0.0000

> <Gold.PLP.Chemscore.Metal>
0.0000

> <Gold.Chemscore.Hbonds>
donor molecule, donor type, donor heavy atom, donor atom, acceptor molecule, acceptor atom, score
      L1  H     8    33       P1  3712  1.00

> <Gold.PLP.Chemscore.Internal.Correction>
0.0048

