#       Name:                EN300-266730_i001
#       Creating user name   fsindt
#       Creation time:       Wed Mar  1 03:28:42 2023


#       File generated by GOLD software.
#

@<TRIPOS>MOLECULE
EN300-266730_i001|amine_7|mol2|10229|dock7
    33    35     1
SMALL
USER_CHARGES


@<TRIPOS>ATOM
      1 C1           0.0851 -11.7511  10.3001 C.3            1 <1>                0.0000
      2 C2          -0.5982 -10.9604   9.1660 C.3            1 <1>                0.0000
      3 O3          -0.3401 -11.6656   7.9358 O.3            1 <1>                0.0000
      4 C4           0.8788 -12.3931   8.1401 C.3            1 <1>                0.0000
      5 C5           1.0994 -13.4725   7.1034 C.3            1 <1>                0.0000
      6 C6           0.0721 -14.5959   7.2576 C.3            1 <1>                0.0000
      7 C7           0.1625 -15.1300   8.6918 C.3            1 <1>                0.0000
      8 N8          -0.2113 -14.0576   9.6157 N.4            1 <1>                1.0000
      9 C9           0.7537 -12.9525   9.5700 C.3            1 <1>                0.0000
     10 C10         -2.0829 -10.8888   9.4138 C.ar           1 <1>                0.0000
     11 C11         -2.6809  -9.6717   9.6820 C.ar           1 <1>                0.0000
     12 C12         -4.0428  -9.6059   9.9094 C.ar           1 <1>                0.0000
     13 C13         -4.8069 -10.7573   9.8680 C.ar           1 <1>                0.0000
     14 C14         -4.2090 -11.9742   9.5988 C.ar           1 <1>                0.0000
     15 C15         -2.8478 -12.0393   9.3673 C.ar           1 <1>                0.0000
     16 H16          0.8380 -11.1371  10.7944 H              1 <1>                0.0000
     17 H17         -0.6541 -12.1041  11.0192 H              1 <1>                0.0000
     18 H18         -0.1806  -9.9551   9.1114 H              1 <1>                0.0000
     19 H19          1.7174 -11.6973   8.1152 H              1 <1>                0.0000
     20 H20          1.0081 -13.0376   6.1083 H              1 <1>                0.0000
     21 H21          2.1014 -13.8845   7.2229 H              1 <1>                0.0000
     22 H22         -0.9291 -14.2072   7.0722 H              1 <1>                0.0000
     23 H23          0.2934 -15.3966   6.5519 H              1 <1>                0.0000
     24 H24         -0.5201 -15.9713   8.8126 H              1 <1>                0.0000
     25 H25          1.1833 -15.4517   8.8986 H              1 <1>                0.0000
     26 H26          1.7149 -13.2252  10.0059 H              1 <1>                0.0000
     27 H27         -2.0840  -8.7722   9.7144 H              1 <1>                0.0000
     28 H28         -4.5100  -8.6552  10.1197 H              1 <1>                0.0000
     29 H29         -5.8708 -10.7060  10.0463 H              1 <1>                0.0000
     30 H30         -4.8058 -12.8737   9.5669 H              1 <1>                0.0000
     31 H31         -2.3806 -12.9901   9.1569 H              1 <1>                0.0000
     32 H32         -1.1245 -13.7093   9.3651 H              1 <1>                0.0000
     33 H33         -0.2460 -14.4271  10.5540 H              1 <1>                0.0000
@<TRIPOS>BOND
    1    1    2 1     
    2    1    9 1     
    3    1   16 1     
    4    1   17 1     
    5    2    3 1     
    6    2   10 1     
    7    2   18 1     
    8    3    4 1     
    9    4    5 1     
   10    4    9 1     
   11    4   19 1     
   12    5    6 1     
   13    5   20 1     
   14    5   21 1     
   15    6    7 1     
   16    6   22 1     
   17    6   23 1     
   18    7    8 1     
   19    7   24 1     
   20    7   25 1     
   21    8    9 1     
   22    8   32 1     
   23    8   33 1     
   24    9   26 1     
   25   10   11 ar    
   26   10   15 ar    
   27   11   12 ar    
   28   11   27 1     
   29   12   13 ar    
   30   12   28 1     
   31   13   14 ar    
   32   13   29 1     
   33   14   15 ar    
   34   14   30 1     
   35   15   31 1     
@<TRIPOS>SUBSTRUCTURE
      1 ****           1
@<TRIPOS>SET
DONOR_HYDROGENS      STATIC     ATOMS    <user>   **** ""
2 32 33
ATOM$RED        STATIC     ATOMS    COLORGROUP SYSTEM
2 32 33
@<TRIPOS>COMMENT
> <Gold.Version>
2022.2.0

> <Gold.Id.Protein>
3pbl|protein|mol2

> <Gold.Protein.RotatedTorsions>
[ 1303 1298 1297 1294 ] final   58.22 input  179.99 | X-H torsion
[ 2461 2456 2455 2452 ] final    7.11 input   30.03 | X-H torsion
[ 2515 2510 2509 2506 ] final   92.71 input  -89.99 | X-H torsion
[ 3721 3712 3711 3710 ] final   64.33 input -179.91 | X-H torsion
[ 3841 3832 3831 3830 ] final   23.96 input -179.91 | X-H torsion
[ 3767 3762 3761 3758 ] final    7.17 input  -89.99 | X-H torsion
[ 2472 2467 2466 2463 ] final  118.72 input  -89.97 | X-H torsion

> <Gold.Protein.ActiveResidues>
 VAL82   VAL86   LEU89   PHE106  VAL107  ASP110  VAL111  MET112  CYS114  THR115 
 CYS181  SER182  ILE183  PHE188  VAL189  ILE190  SER192  SER193  SER196  TRP342 
 PHE345  PHE346  HIS349  VAL350  TYR365  THR369  GLY372  TYR373 

> <Gold.Protein.RotatedAtoms>
    3.9838  -10.2713    4.6174 H   0  0  0  0  0  0  0  0  0  0  0  0  # atno 1303 bound_to 1298
    1.1531   -7.9551    7.0368 H   0  0  0  0  0  0  0  0  0  0  0  0  # atno 2461 bound_to 2456
   -5.4082   -5.0682    8.1149 H   0  0  0  0  0  0  0  0  0  0  0  0  # atno 2472 bound_to 2467
    2.0390   -7.7679    5.8686 H   0  0  0  0  0  0  0  0  0  0  0  0  # atno 2515 bound_to 2510
   -2.6149  -17.8745   13.3328 H   0  0  0  0  0  0  0  0  0  0  0  0  # atno 3721 bound_to 3712
   -5.2540  -22.8039   10.1085 H   0  0  0  0  0  0  0  0  0  0  0  0  # atno 3767 bound_to 3762
    1.9904  -20.7332    9.6221 H   0  0  0  0  0  0  0  0  0  0  0  0  # atno 3841 bound_to 3832
    3.5143   -8.9514    3.7783 LP  0  0  0  0  0  0  0  0  0  0  0  0  # atno 4297 bound_to 1298
    4.8642   -8.8983    4.6958 LP  0  0  0  0  0  0  0  0  0  0  0  0  # atno 4298 bound_to 1298
    0.5037   -9.1226    7.9763 LP  0  0  0  0  0  0  0  0  0  0  0  0  # atno 4299 bound_to 2456
    2.0809   -8.7302    8.1348 LP  0  0  0  0  0  0  0  0  0  0  0  0  # atno 4300 bound_to 2456
    2.7070   -7.9820    4.3943 LP  0  0  0  0  0  0  0  0  0  0  0  0  # atno 4301 bound_to 2510
    2.5509   -9.2495    5.4120 LP  0  0  0  0  0  0  0  0  0  0  0  0  # atno 4302 bound_to 2510
   -2.9489  -17.4821   14.8534 LP  0  0  0  0  0  0  0  0  0  0  0  0  # atno 4306 bound_to 3712
   -3.5598  -16.6079   13.6168 LP  0  0  0  0  0  0  0  0  0  0  0  0  # atno 4307 bound_to 3712
    1.8045  -19.6482    8.4541 LP  0  0  0  0  0  0  0  0  0  0  0  0  # atno 4314 bound_to 3832
    3.1257  -20.6071    8.4946 LP  0  0  0  0  0  0  0  0  0  0  0  0  # atno 4315 bound_to 3832
   -4.9465  -21.9401   11.4598 LP  0  0  0  0  0  0  0  0  0  0  0  0  # atno 4318 bound_to 3762
   -3.9271  -23.1311   11.0025 LP  0  0  0  0  0  0  0  0  0  0  0  0  # atno 4319 bound_to 3762
   -3.7864   -4.8801    8.0903 LP  0  0  0  0  0  0  0  0  0  0  0  0  # atno 4320 bound_to 2467
   -4.5225   -5.4453    9.4339 LP  0  0  0  0  0  0  0  0  0  0  0  0  # atno 4321 bound_to 2467

> <Gold.Score>
     Score     S(PLP)   S(hbond)     S(cho)   S(metal)  DE(clash)   DE(tors)     intcor
     53.22     -53.43       0.00       0.00       0.00       0.00       0.11       0.00

> <Gold.PLP.Fitness>
53.2187

> <Gold.PLP.PLP>
-53.4267

> <Gold.PLP.part.hbond>
0.0000

> <Gold.PLP.part.metal>
0.0000

> <Gold.PLP.part.buried>
-0.9257

> <Gold.PLP.part.nonpolar>
-53.6141

> <Gold.PLP.part.repulsive>
0.0000

> <Gold.PLP.ligand.clash>
0.0000

> <Gold.PLP.ligand.torsion>
0.1064

> <Gold.PLP.Chemscore.Hbond>
0.0000

> <Gold.PLP.Chemscore.CHOScore>
0.0000

> <Gold.PLP.Chemscore.Metal>
0.0000

> <Gold.PLP.Chemscore.Internal.Correction>
0.0048

