#       Name:                EN300-266730_i001
#       Creating user name   fsindt
#       Creation time:       Wed Mar  1 03:28:43 2023


#       File generated by GOLD software.
#

@<TRIPOS>MOLECULE
EN300-266730_i001|amine_7|mol2|10229|dock9
    33    35     1
SMALL
USER_CHARGES


@<TRIPOS>ATOM
      1 C1           1.6696 -18.3188  14.9877 C.3            1 <1>                0.0000
      2 C2           0.2179 -18.7681  14.7253 C.3            1 <1>                0.0000
      3 O3          -0.4489 -17.6875  14.0435 O.3            1 <1>                0.0000
      4 C4           0.2410 -16.4889  14.4233 C.3            1 <1>                0.0000
      5 C5          -0.0766 -15.3172  13.5208 C.3            1 <1>                0.0000
      6 C6           0.4939 -15.5378  12.1183 C.3            1 <1>                0.0000
      7 C7           2.0008 -15.7867  12.2512 C.3            1 <1>                0.0000
      8 N8           2.2067 -17.0201  13.0125 N.4            1 <1>                1.0000
      9 C9           1.7305 -16.8810  14.3941 C.3            1 <1>                0.0000
     10 C10          0.2119 -20.0015  13.8594 C.ar           1 <1>                0.0000
     11 C11          0.8364 -21.1551  14.2953 C.ar           1 <1>                0.0000
     12 C12          0.8310 -22.2864  13.5011 C.ar           1 <1>                0.0000
     13 C13          0.2005 -22.2644  12.2710 C.ar           1 <1>                0.0000
     14 C14         -0.4248 -21.1110  11.8355 C.ar           1 <1>                0.0000
     15 C15         -0.4230 -19.9810  12.6316 C.ar           1 <1>                0.0000
     16 H16          1.8764 -18.2997  16.0577 H              1 <1>                0.0000
     17 H17          2.3718 -18.9749  14.4733 H              1 <1>                0.0000
     18 H18         -0.2828 -18.9745  15.6712 H              1 <1>                0.0000
     19 H19         -0.0272 -16.2332  15.4484 H              1 <1>                0.0000
     20 H20         -1.1581 -15.1999  13.4533 H              1 <1>                0.0000
     21 H21          0.3555 -14.4108  13.9449 H              1 <1>                0.0000
     22 H22          0.0170 -16.4035  11.6588 H              1 <1>                0.0000
     23 H23          0.3195 -14.6527  11.5065 H              1 <1>                0.0000
     24 H24          2.4432 -15.8903  11.2603 H              1 <1>                0.0000
     25 H25          2.4646 -14.9513  12.7758 H              1 <1>                0.0000
     26 H26          2.3584 -16.2114  14.9819 H              1 <1>                0.0000
     27 H27          1.3290 -21.1724  15.2563 H              1 <1>                0.0000
     28 H28          1.3195 -23.1875  13.8413 H              1 <1>                0.0000
     29 H29          0.1968 -23.1480  11.6502 H              1 <1>                0.0000
     30 H30         -0.9170 -21.0937  10.8743 H              1 <1>                0.0000
     31 H31         -0.9116 -19.0799  12.2914 H              1 <1>                0.0000
     32 H32          1.7052 -17.7723  12.5645 H              1 <1>                0.0000
     33 H33          3.1911 -17.2412  13.0233 H              1 <1>                0.0000
@<TRIPOS>BOND
    1    1    2 1     
    2    1    9 1     
    3    1   16 1     
    4    1   17 1     
    5    2    3 1     
    6    2   10 1     
    7    2   18 1     
    8    3    4 1     
    9    4    5 1     
   10    4    9 1     
   11    4   19 1     
   12    5    6 1     
   13    5   20 1     
   14    5   21 1     
   15    6    7 1     
   16    6   22 1     
   17    6   23 1     
   18    7    8 1     
   19    7   24 1     
   20    7   25 1     
   21    8    9 1     
   22    8   32 1     
   23    8   33 1     
   24    9   26 1     
   25   10   11 ar    
   26   10   15 ar    
   27   11   12 ar    
   28   11   27 1     
   29   12   13 ar    
   30   12   28 1     
   31   13   14 ar    
   32   13   29 1     
   33   14   15 ar    
   34   14   30 1     
   35   15   31 1     
@<TRIPOS>SUBSTRUCTURE
      1 ****           1
@<TRIPOS>SET
DONOR_HYDROGENS      STATIC     ATOMS    <user>   **** ""
2 32 33
ATOM$RED        STATIC     ATOMS    COLORGROUP SYSTEM
2 32 33
@<TRIPOS>COMMENT
> <Gold.Version>
2022.2.0

> <Gold.Id.Protein>
3pbl|protein|mol2

> <Gold.Protein.RotatedTorsions>
[ 1303 1298 1297 1294 ] final   89.08 input  179.99 | X-H torsion
[ 2461 2456 2455 2452 ] final    7.96 input   30.03 | X-H torsion
[ 2515 2510 2509 2506 ] final  -15.21 input  -89.99 | X-H torsion
[ 3721 3712 3711 3710 ] final    9.13 input -179.91 | X-H torsion
[ 3841 3832 3831 3830 ] final  117.09 input -179.91 | X-H torsion
[ 3767 3762 3761 3758 ] final  -86.64 input  -89.99 | X-H torsion
[ 2472 2467 2466 2463 ] final   23.36 input  -89.97 | X-H torsion

> <Gold.Protein.ActiveResidues>
 VAL82   VAL86   LEU89   PHE106  VAL107  ASP110  VAL111  MET112  CYS114  THR115 
 CYS181  SER182  ILE183  PHE188  VAL189  ILE190  SER192  SER193  SER196  TRP342 
 PHE345  PHE346  HIS349  VAL350  TYR365  THR369  GLY372  TYR373 

> <Gold.Protein.RotatedAtoms>
    4.4028  -10.1284    4.8532 H   0  0  0  0  0  0  0  0  0  0  0  0  # atno 1303 bound_to 1298
    1.1665   -7.9519    7.0382 H   0  0  0  0  0  0  0  0  0  0  0  0  # atno 2461 bound_to 2456
   -4.0710   -4.8127    7.8142 H   0  0  0  0  0  0  0  0  0  0  0  0  # atno 2472 bound_to 2467
    2.6391   -7.8110    4.4682 H   0  0  0  0  0  0  0  0  0  0  0  0  # atno 2515 bound_to 2510
   -2.4731  -18.0010   14.1125 H   0  0  0  0  0  0  0  0  0  0  0  0  # atno 3721 bound_to 3712
   -5.2600  -21.9266   11.1700 H   0  0  0  0  0  0  0  0  0  0  0  0  # atno 3767 bound_to 3762
    3.0661  -20.7506    8.9716 H   0  0  0  0  0  0  0  0  0  0  0  0  # atno 3841 bound_to 3832
    3.3395   -9.4180    3.8379 LP  0  0  0  0  0  0  0  0  0  0  0  0  # atno 4297 bound_to 1298
    4.6198   -8.5747    4.4003 LP  0  0  0  0  0  0  0  0  0  0  0  0  # atno 4298 bound_to 1298
    0.4959   -9.1160    7.9669 LP  0  0  0  0  0  0  0  0  0  0  0  0  # atno 4299 bound_to 2456
    2.0753   -8.7401    8.1428 LP  0  0  0  0  0  0  0  0  0  0  0  0  # atno 4300 bound_to 2456
    2.6290   -9.2551    5.2299 LP  0  0  0  0  0  0  0  0  0  0  0  0  # atno 4301 bound_to 2510
    2.0285   -7.9333    5.9775 LP  0  0  0  0  0  0  0  0  0  0  0  0  # atno 4302 bound_to 2510
   -3.3859  -16.7629   14.5727 LP  0  0  0  0  0  0  0  0  0  0  0  0  # atno 4306 bound_to 3712
   -3.2865  -17.1809   12.9973 LP  0  0  0  0  0  0  0  0  0  0  0  0  # atno 4307 bound_to 3712
    1.5437  -20.5816    9.4512 LP  0  0  0  0  0  0  0  0  0  0  0  0  # atno 4314 bound_to 3832
    2.1438  -19.6537    8.2489 LP  0  0  0  0  0  0  0  0  0  0  0  0  # atno 4315 bound_to 3832
   -3.9290  -22.8588   11.3319 LP  0  0  0  0  0  0  0  0  0  0  0  0  # atno 4318 bound_to 3762
   -4.9386  -23.0894   10.0693 LP  0  0  0  0  0  0  0  0  0  0  0  0  # atno 4319 bound_to 3762
   -4.1365   -5.3715    9.3471 LP  0  0  0  0  0  0  0  0  0  0  0  0  # atno 4320 bound_to 2467
   -5.5093   -5.2093    8.4778 LP  0  0  0  0  0  0  0  0  0  0  0  0  # atno 4321 bound_to 2467

> <Gold.Score>
     Score     S(PLP)   S(hbond)     S(cho)   S(metal)  DE(clash)   DE(tors)     intcor
     44.11     -41.67       0.82       0.00       0.00       0.00       0.00       0.00

> <Gold.PLP.Fitness>
44.1085

> <Gold.PLP.PLP>
-41.6656

> <Gold.PLP.part.hbond>
-1.0000

> <Gold.PLP.part.metal>
0.0000

> <Gold.PLP.part.buried>
-4.3939

> <Gold.PLP.part.nonpolar>
-36.4140

> <Gold.PLP.part.repulsive>
0.0228

> <Gold.PLP.ligand.clash>
0.0000

> <Gold.PLP.ligand.torsion>
0.0049

> <Gold.PLP.Chemscore.Hbond>
0.8160

> <Gold.PLP.Chemscore.CHOScore>
0.0000

> <Gold.PLP.Chemscore.Metal>
0.0000

> <Gold.Chemscore.Hbonds>
donor molecule, donor type, donor heavy atom, donor atom, acceptor molecule, acceptor atom, score
      P1  H  3712  3721       L1     3  0.82

> <Gold.PLP.Chemscore.Internal.Correction>
0.0048

