#       Name:                EN300-266730_i001
#       Creating user name   fsindt
#       Creation time:       Wed Mar  1 03:28:46 2023


#       File generated by GOLD software.
#

@<TRIPOS>MOLECULE
EN300-266730_i001|amine_7|mol2|10229|dock18
    33    35     1
SMALL
USER_CHARGES


@<TRIPOS>ATOM
      1 C1          -0.6927 -15.7259  12.8522 C.3            1 <1>                0.0000
      2 C2           0.4167 -15.8803  11.7922 C.3            1 <1>                0.0000
      3 O3           1.5372 -16.5203  12.4343 O.3            1 <1>                0.0000
      4 C4           1.4358 -16.1995  13.8284 C.3            1 <1>                0.0000
      5 C5           2.2991 -17.0853  14.6993 C.3            1 <1>                0.0000
      6 C6           1.7768 -18.5235  14.7027 C.3            1 <1>                0.0000
      7 C7           0.3132 -18.4972  15.1583 C.3            1 <1>                0.0000
      8 N8          -0.4695 -17.7437  14.1769 N.4            1 <1>                1.0000
      9 C9          -0.0666 -16.3327  14.1419 C.3            1 <1>                0.0000
     10 C10         -0.0779 -16.7346  10.6536 C.ar           1 <1>                0.0000
     11 C11         -0.1048 -16.2256   9.3687 C.ar           1 <1>                0.0000
     12 C12         -0.5586 -17.0092   8.3242 C.ar           1 <1>                0.0000
     13 C13         -0.9850 -18.3021   8.5646 C.ar           1 <1>                0.0000
     14 C14         -0.9572 -18.8113   9.8494 C.ar           1 <1>                0.0000
     15 C15         -0.4994 -18.0291  10.8932 C.ar           1 <1>                0.0000
     16 H16         -0.9337 -14.6736  13.0029 H              1 <1>                0.0000
     17 H17         -1.5816 -16.2846  12.5594 H              1 <1>                0.0000
     18 H18          0.7133 -14.8994  11.4206 H              1 <1>                0.0000
     19 H19          1.7272 -15.1597  13.9768 H              1 <1>                0.0000
     20 H20          3.3204 -17.0760  14.3187 H              1 <1>                0.0000
     21 H21          2.2941 -16.6999  15.7188 H              1 <1>                0.0000
     22 H22          1.8421 -18.9414  13.6982 H              1 <1>                0.0000
     23 H23          2.3662 -19.1276  15.3925 H              1 <1>                0.0000
     24 H24         -0.0675 -19.5164  15.2250 H              1 <1>                0.0000
     25 H25          0.2419 -18.0132  16.1323 H              1 <1>                0.0000
     26 H26         -0.3623 -15.7962  15.0435 H              1 <1>                0.0000
     27 H27          0.2283 -15.2156   9.1808 H              1 <1>                0.0000
     28 H28         -0.5802 -16.6114   7.3203 H              1 <1>                0.0000
     29 H29         -1.3401 -18.9140   7.7487 H              1 <1>                0.0000
     30 H30         -1.2907 -19.8212  10.0373 H              1 <1>                0.0000
     31 H31         -0.4777 -18.4270  11.8970 H              1 <1>                0.0000
     32 H32         -0.3320 -18.1492  13.2632 H              1 <1>                0.0000
     33 H33         -1.4472 -17.8020  14.4192 H              1 <1>                0.0000
@<TRIPOS>BOND
    1    1    2 1     
    2    1    9 1     
    3    1   16 1     
    4    1   17 1     
    5    2    3 1     
    6    2   10 1     
    7    2   18 1     
    8    3    4 1     
    9    4    5 1     
   10    4    9 1     
   11    4   19 1     
   12    5    6 1     
   13    5   20 1     
   14    5   21 1     
   15    6    7 1     
   16    6   22 1     
   17    6   23 1     
   18    7    8 1     
   19    7   24 1     
   20    7   25 1     
   21    8    9 1     
   22    8   32 1     
   23    8   33 1     
   24    9   26 1     
   25   10   11 ar    
   26   10   15 ar    
   27   11   12 ar    
   28   11   27 1     
   29   12   13 ar    
   30   12   28 1     
   31   13   14 ar    
   32   13   29 1     
   33   14   15 ar    
   34   14   30 1     
   35   15   31 1     
@<TRIPOS>SUBSTRUCTURE
      1 ****           1
@<TRIPOS>SET
DONOR_HYDROGENS      STATIC     ATOMS    <user>   **** ""
2 32 33
ATOM$RED        STATIC     ATOMS    COLORGROUP SYSTEM
2 32 33
@<TRIPOS>COMMENT
> <Gold.Version>
2022.2.0

> <Gold.Id.Protein>
3pbl|protein|mol2

> <Gold.Protein.RotatedTorsions>
[ 1303 1298 1297 1294 ] final  -56.77 input  179.99 | X-H torsion
[ 2461 2456 2455 2452 ] final   40.21 input   30.03 | X-H torsion
[ 2515 2510 2509 2506 ] final -113.99 input  -89.99 | X-H torsion
[ 3721 3712 3711 3710 ] final -162.21 input -179.91 | X-H torsion
[ 3841 3832 3831 3830 ] final  154.85 input -179.91 | X-H torsion
[ 3767 3762 3761 3758 ] final -159.57 input  -89.99 | X-H torsion
[ 2472 2467 2466 2463 ] final  135.00 input  -89.97 | X-H torsion

> <Gold.Protein.ActiveResidues>
 VAL82   VAL86   LEU89   PHE106  VAL107  ASP110  VAL111  MET112  CYS114  THR115 
 CYS181  SER182  ILE183  PHE188  VAL189  ILE190  SER192  SER193  SER196  TRP342 
 PHE345  PHE346  HIS349  VAL350  TYR365  THR369  GLY372  TYR373 

> <Gold.Protein.RotatedAtoms>
    3.4721   -9.0223    3.7771 H   0  0  0  0  0  0  0  0  0  0  0  0  # atno 1303 bound_to 1298
    1.6655   -7.9364    7.1970 H   0  0  0  0  0  0  0  0  0  0  0  0  # atno 2461 bound_to 2456
   -5.4938   -5.1622    8.3497 H   0  0  0  0  0  0  0  0  0  0  0  0  # atno 2472 bound_to 2467
    2.7433   -9.1666    4.9142 H   0  0  0  0  0  0  0  0  0  0  0  0  # atno 2515 bound_to 2510
   -3.3387  -16.5381   13.8049 H   0  0  0  0  0  0  0  0  0  0  0  0  # atno 3721 bound_to 3712
   -4.3133  -22.2925   11.6457 H   0  0  0  0  0  0  0  0  0  0  0  0  # atno 3767 bound_to 3762
    3.1103  -20.3484    8.5841 H   0  0  0  0  0  0  0  0  0  0  0  0  # atno 3841 bound_to 3832
    4.8377   -8.8337    4.6523 LP  0  0  0  0  0  0  0  0  0  0  0  0  # atno 4297 bound_to 1298
    4.0526  -10.2655    4.6624 LP  0  0  0  0  0  0  0  0  0  0  0  0  # atno 4298 bound_to 1298
    0.3317   -8.7940    7.5880 LP  0  0  0  0  0  0  0  0  0  0  0  0  # atno 4299 bound_to 2456
    1.7408   -9.0775    8.3630 LP  0  0  0  0  0  0  0  0  0  0  0  0  # atno 4300 bound_to 2456
    2.0538   -8.2622    6.0857 LP  0  0  0  0  0  0  0  0  0  0  0  0  # atno 4301 bound_to 2510
    2.4995   -7.5699    4.6755 LP  0  0  0  0  0  0  0  0  0  0  0  0  # atno 4302 bound_to 2510
   -2.8486  -17.9210   13.1529 LP  0  0  0  0  0  0  0  0  0  0  0  0  # atno 4306 bound_to 3712
   -2.8245  -17.7118   14.7722 LP  0  0  0  0  0  0  0  0  0  0  0  0  # atno 4307 bound_to 3712
    1.9962  -20.9952    9.5414 LP  0  0  0  0  0  0  0  0  0  0  0  0  # atno 4314 bound_to 3832
    1.6402  -19.7046    8.6063 LP  0  0  0  0  0  0  0  0  0  0  0  0  # atno 4315 bound_to 3832
   -4.3026  -23.3352   10.3889 LP  0  0  0  0  0  0  0  0  0  0  0  0  # atno 4318 bound_to 3762
   -5.5113  -22.2472   10.5368 LP  0  0  0  0  0  0  0  0  0  0  0  0  # atno 4319 bound_to 3762
   -3.9613   -4.8290    7.8952 LP  0  0  0  0  0  0  0  0  0  0  0  0  # atno 4320 bound_to 2467
   -4.2620   -5.4024    9.3943 LP  0  0  0  0  0  0  0  0  0  0  0  0  # atno 4321 bound_to 2467

> <Gold.Score>
     Score     S(PLP)   S(hbond)     S(cho)   S(metal)  DE(clash)   DE(tors)     intcor
     45.86     -42.89       0.99       0.00       0.00       0.00       0.00       0.00

> <Gold.PLP.Fitness>
45.8631

> <Gold.PLP.PLP>
-42.8878

> <Gold.PLP.part.hbond>
-1.0000

> <Gold.PLP.part.metal>
0.0000

> <Gold.PLP.part.buried>
-1.6783

> <Gold.PLP.part.nonpolar>
-40.9522

> <Gold.PLP.part.repulsive>
0.1116

> <Gold.PLP.ligand.clash>
0.0000

> <Gold.PLP.ligand.torsion>
0.0028

> <Gold.PLP.Chemscore.Hbond>
0.9920

> <Gold.PLP.Chemscore.CHOScore>
0.0000

> <Gold.PLP.Chemscore.Metal>
0.0000

> <Gold.Chemscore.Hbonds>
donor molecule, donor type, donor heavy atom, donor atom, acceptor molecule, acceptor atom, score
      L1  H     8    33       P1  3712  0.99

> <Gold.PLP.Chemscore.Internal.Correction>
0.0048

