#       Name:                EN300-92976_i004
#       Creating user name   aseyller
#       Creation time:       Sat Apr 22 06:40:15 2023


#       File generated by GOLD software.
#

@<TRIPOS>MOLECULE
EN300-92976_i004|amine_3|mol2|3775|dock13
    38    38     1
SMALL
USER_CHARGES


@<TRIPOS>ATOM
      1 C1          25.8957  36.7833  39.6806 C.3            1 <1>                0.0000
      2 C2          27.2646  36.3771  39.1311 C.3            1 <1>                0.0000
      3 C3          28.3555  37.1950  39.8258 C.3            1 <1>                0.0000
      4 C4          29.7233  36.7853  39.2723 C.3            1 <1>                0.0000
      5 C5          29.9127  35.2785  39.4703 C.3            1 <1>                0.0000
      6 C6          28.7641  34.5317  38.7887 C.3            1 <1>                0.0000
      7 N7          27.4864  34.9476  39.3796 N.4            1 <1>                1.0000
      8 N8          29.7893  37.1038  37.8440 N.am           1 <1>                0.0000
      9 C9          30.9287  36.8879  37.1573 C.2            1 <1>                0.0000
     10 O10         31.9013  36.4290  37.7229 O.2            1 <1>                0.0000
     11 O11         30.9893  37.1807  35.8445 O.3            1 <1>                0.0000
     12 C12         32.2831  37.5748  35.3160 C.3            1 <1>                0.0000
     13 C13         32.0987  38.2070  33.9350 C.3            1 <1>                0.0000
     14 C14         32.9316  38.5899  36.2593 C.3            1 <1>                0.0000
     15 C15         33.1822  36.3426  35.1969 C.3            1 <1>                0.0000
     16 H16         25.7293  37.8442  39.4938 H              1 <1>                0.0000
     17 H17         25.1183  36.2010  39.1860 H              1 <1>                0.0000
     18 H18         25.8642  36.5940  40.7535 H              1 <1>                0.0000
     19 H19         27.2959  36.5676  38.0582 H              1 <1>                0.0000
     20 H20         28.1899  38.2559  39.6385 H              1 <1>                0.0000
     21 H21         28.3252  37.0050  40.8987 H              1 <1>                0.0000
     22 H22         30.5078  37.3242  39.8038 H              1 <1>                0.0000
     23 H23         30.8602  34.9697  39.0289 H              1 <1>                0.0000
     24 H24         29.9148  35.0489  40.5358 H              1 <1>                0.0000
     25 H25         28.7632  34.7621  37.7233 H              1 <1>                0.0000
     26 H26         28.8959  33.4588  38.9276 H              1 <1>                0.0000
     27 H27         31.4583  39.0849  34.0199 H              1 <1>                0.0000
     28 H28         33.0699  38.5029  33.5383 H              1 <1>                0.0000
     29 H29         31.6368  37.4838  33.2629 H              1 <1>                0.0000
     30 H30         33.0628  38.1395  37.2431 H              1 <1>                0.0000
     31 H31         33.9027  38.8858  35.8626 H              1 <1>                0.0000
     32 H32         32.2910  39.4678  36.3442 H              1 <1>                0.0000
     33 H33         32.7202  35.6192  34.5249 H              1 <1>                0.0000
     34 H34         34.1533  36.6383  34.8002 H              1 <1>                0.0000
     35 H35         33.3134  35.8920  36.1807 H              1 <1>                0.0000
     36 H36         27.5065  34.7794  40.3743 H              1 <1>                0.0000
     37 H37         26.7363  34.4149  38.9655 H              1 <1>                0.0000
     38 H38         29.0129  37.4702  37.3924 H              1 <1>                0.0000
@<TRIPOS>BOND
    1    1    2 1     
    2    1   16 1     
    3    1   17 1     
    4    1   18 1     
    5    2    3 1     
    6    2    7 1     
    7    2   19 1     
    8    3    4 1     
    9    3   20 1     
   10    3   21 1     
   11    4    5 1     
   12    4    8 1     
   13    4   22 1     
   14    5    6 1     
   15    5   23 1     
   16    5   24 1     
   17    6    7 1     
   18    6   25 1     
   19    6   26 1     
   20    7   36 1     
   21    7   37 1     
   22    8    9 am    
   23    8   38 1     
   24    9   10 2     
   25    9   11 1     
   26   11   12 1     
   27   12   13 1     
   28   12   14 1     
   29   12   15 1     
   30   13   27 1     
   31   13   28 1     
   32   13   29 1     
   33   14   30 1     
   34   14   31 1     
   35   14   32 1     
   36   15   33 1     
   37   15   34 1     
   38   15   35 1     
@<TRIPOS>SUBSTRUCTURE
      1 ****           1
@<TRIPOS>SET
DONOR_HYDROGENS      STATIC     ATOMS    <user>   **** ""
3 36 37 38
ATOM$RED        STATIC     ATOMS    COLORGROUP SYSTEM
3 36 37 38
@<TRIPOS>COMMENT
> <Gold.Version>
2022.2.0

> <Gold.Id.Protein>
1qkm|1qkm_protein|mol2

> <Gold.Protein.RotatedTorsions>
[  496  491  490  487 ] final  -87.74 input  -89.99 | X-H torsion

> <Gold.Protein.ActiveResidues>
 MET295  LEU298  THR299  LEU301  ALA302  GLU305  TRP335  MET336  LEU339  MET340 
 GLY342  LEU343  ARG346  PHE356  ILE373  ILE376  PHE377  LEU380  LYS471  GLY472 
 MET473  HIS475  LEU476  LEU477  ASN478  MET479  VAL484  VAL487 

> <Gold.Protein.RotatedAtoms>
   36.7365   34.6675   41.1066 H   0  0  0  0  0  0  0  0  0  0  0  0  # atno 496  bound_to 491 

> <Gold.Score>
     Score     S(PLP)   S(hbond)     S(cho)   S(metal)  DE(clash)   DE(tors)     intcor
     34.89     -35.55       0.00       0.00       0.00       0.00       0.54       0.42

> <Gold.PLP.Fitness>
34.8882

> <Gold.PLP.PLP>
-35.5512

> <Gold.PLP.part.hbond>
0.0000

> <Gold.PLP.part.metal>
0.0000

> <Gold.PLP.part.buried>
-3.1849

> <Gold.PLP.part.nonpolar>
-32.3282

> <Gold.PLP.part.repulsive>
0.0498

> <Gold.PLP.ligand.clash>
0.0000

> <Gold.PLP.ligand.torsion>
0.5413

> <Gold.PLP.Chemscore.Hbond>
0.0000

> <Gold.PLP.Chemscore.CHOScore>
0.0000

> <Gold.PLP.Chemscore.Metal>
0.0000

> <Gold.PLP.Chemscore.Internal.Correction>
0.4195

