#       Name:                EN300-92976_i004
#       Creating user name   aseyller
#       Creation time:       Sat Apr 22 06:40:10 2023


#       File generated by GOLD software.
#

@<TRIPOS>MOLECULE
EN300-92976_i004|amine_3|mol2|3775|dock6
    38    38     1
SMALL
USER_CHARGES


@<TRIPOS>ATOM
      1 C1          29.2488  36.1311  42.0985 C.3            1 <1>                0.0000
      2 C2          28.1056  36.6482  41.2230 C.3            1 <1>                0.0000
      3 C3          27.8785  35.6817  40.0586 C.3            1 <1>                0.0000
      4 C4          26.7339  36.2035  39.1851 C.3            1 <1>                0.0000
      5 C5          25.4818  36.3745  40.0502 C.3            1 <1>                0.0000
      6 C6          25.7977  37.3154  41.2149 C.3            1 <1>                0.0000
      7 N7          26.8814  36.7483  42.0265 N.4            1 <1>                1.0000
      8 N8          27.1094  37.4957  38.6060 N.am           1 <1>                0.0000
      9 C9          28.2240  37.5993  37.8554 C.2            1 <1>                0.0000
     10 O10         28.9175  36.6210  37.6591 O.2            1 <1>                0.0000
     11 O11         28.5692  38.7869  37.3231 O.3            1 <1>                0.0000
     12 C12         29.8603  38.8632  36.6631 C.3            1 <1>                0.0000
     13 C13         30.1213  40.3037  36.2183 C.3            1 <1>                0.0000
     14 C14         30.9568  38.4230  37.6351 C.3            1 <1>                0.0000
     15 C15         29.8633  37.9435  35.4405 C.3            1 <1>                0.0000
     16 H16         30.1588  36.0592  41.5028 H              1 <1>                0.0000
     17 H17         29.4109  36.8193  42.9281 H              1 <1>                0.0000
     18 H18         28.9910  35.1464  42.4884 H              1 <1>                0.0000
     19 H19         28.3643  37.6325  40.8325 H              1 <1>                0.0000
     20 H20         28.7880  35.6103  39.4622 H              1 <1>                0.0000
     21 H21         27.6194  34.6971  40.4480 H              1 <1>                0.0000
     22 H22         26.5305  35.4902  38.3864 H              1 <1>                0.0000
     23 H23         24.6783  36.7982  39.4477 H              1 <1>                0.0000
     24 H24         25.1730  35.4043  40.4393 H              1 <1>                0.0000
     25 H25         26.1062  38.2852  40.8244 H              1 <1>                0.0000
     26 H26         24.9084  37.4394  41.8327 H              1 <1>                0.0000
     27 H27         30.1192  40.9590  37.0893 H              1 <1>                0.0000
     28 H28         31.0905  40.3610  35.7228 H              1 <1>                0.0000
     29 H29         29.3402  40.6173  35.5257 H              1 <1>                0.0000
     30 H30         30.7708  37.3969  37.9520 H              1 <1>                0.0000
     31 H31         31.9259  38.4803  37.1397 H              1 <1>                0.0000
     32 H32         30.9546  39.0783  38.5062 H              1 <1>                0.0000
     33 H33         29.0821  38.2570  34.7480 H              1 <1>                0.0000
     34 H34         30.8324  38.0007  34.9451 H              1 <1>                0.0000
     35 H35         29.6772  36.9172  35.7573 H              1 <1>                0.0000
     36 H36         26.6146  35.8295  42.3471 H              1 <1>                0.0000
     37 H37         27.0507  37.3441  42.8230 H              1 <1>                0.0000
     38 H38         26.5559  38.2767  38.7627 H              1 <1>                0.0000
@<TRIPOS>BOND
    1    1    2 1     
    2    1   16 1     
    3    1   17 1     
    4    1   18 1     
    5    2    3 1     
    6    2    7 1     
    7    2   19 1     
    8    3    4 1     
    9    3   20 1     
   10    3   21 1     
   11    4    5 1     
   12    4    8 1     
   13    4   22 1     
   14    5    6 1     
   15    5   23 1     
   16    5   24 1     
   17    6    7 1     
   18    6   25 1     
   19    6   26 1     
   20    7   36 1     
   21    7   37 1     
   22    8    9 am    
   23    8   38 1     
   24    9   10 2     
   25    9   11 1     
   26   11   12 1     
   27   12   13 1     
   28   12   14 1     
   29   12   15 1     
   30   13   27 1     
   31   13   28 1     
   32   13   29 1     
   33   14   30 1     
   34   14   31 1     
   35   14   32 1     
   36   15   33 1     
   37   15   34 1     
   38   15   35 1     
@<TRIPOS>SUBSTRUCTURE
      1 ****           1
@<TRIPOS>SET
DONOR_HYDROGENS      STATIC     ATOMS    <user>   **** ""
3 36 37 38
ATOM$RED        STATIC     ATOMS    COLORGROUP SYSTEM
3 36 37 38
@<TRIPOS>COMMENT
> <Gold.Version>
2022.2.0

> <Gold.Id.Protein>
1qkm|1qkm_protein|mol2

> <Gold.Protein.RotatedTorsions>
[  496  491  490  487 ] final -129.20 input  -89.99 | X-H torsion

> <Gold.Protein.ActiveResidues>
 MET295  LEU298  THR299  LEU301  ALA302  GLU305  TRP335  MET336  LEU339  MET340 
 GLY342  LEU343  ARG346  PHE356  ILE373  ILE376  PHE377  LEU380  LYS471  GLY472 
 MET473  HIS475  LEU476  LEU477  ASN478  MET479  VAL484  VAL487 

> <Gold.Protein.RotatedAtoms>
   37.0988   34.2322   40.7531 H   0  0  0  0  0  0  0  0  0  0  0  0  # atno 496  bound_to 491 

> <Gold.Score>
     Score     S(PLP)   S(hbond)     S(cho)   S(metal)  DE(clash)   DE(tors)     intcor
     43.96     -38.70       2.00       0.00       0.00       1.03       0.07       0.44

> <Gold.PLP.Fitness>
43.9564

> <Gold.PLP.PLP>
-38.6962

> <Gold.PLP.part.hbond>
-1.0000

> <Gold.PLP.part.metal>
0.0000

> <Gold.PLP.part.buried>
1.9541

> <Gold.PLP.part.nonpolar>
-38.9740

> <Gold.PLP.part.repulsive>
0.0562

> <Gold.PLP.ligand.clash>
1.0336

> <Gold.PLP.ligand.torsion>
0.0749

> <Gold.PLP.Chemscore.Hbond>
2.0000

> <Gold.PLP.Chemscore.CHOScore>
0.0000

> <Gold.PLP.Chemscore.Metal>
0.0000

> <Gold.Chemscore.Hbonds>
donor molecule, donor type, donor heavy atom, donor atom, acceptor molecule, acceptor atom, score
      L1  H     7    36       P1   582  2.00

> <Gold.PLP.Chemscore.Internal.Correction>
0.4436

