#       Name:                EN300-92976_i004
#       Creating user name   aseyller
#       Creation time:       Sat Apr 22 06:40:19 2023


#       File generated by GOLD software.
#

@<TRIPOS>MOLECULE
EN300-92976_i004|amine_3|mol2|3775|dock20
    38    38     1
SMALL
USER_CHARGES


@<TRIPOS>ATOM
      1 C1          29.3951  37.0036  42.3107 C.3            1 <1>                0.0000
      2 C2          28.5655  36.8640  41.0327 C.3            1 <1>                0.0000
      3 C3          29.3364  36.0210  40.0146 C.3            1 <1>                0.0000
      4 C4          28.5024  35.8843  38.7374 C.3            1 <1>                0.0000
      5 C5          27.1442  35.2707  39.0896 C.3            1 <1>                0.0000
      6 C6          26.4546  36.1416  40.1419 C.3            1 <1>                0.0000
      7 N7          27.2890  36.2114  41.3476 N.4            1 <1>                1.0000
      8 N8          28.3024  37.2065  38.1392 N.am           1 <1>                0.0000
      9 C9          29.3595  37.9057  37.6808 C.2            1 <1>                0.0000
     10 O10         30.4785  37.4395  37.7638 O.2            1 <1>                0.0000
     11 O11         29.1756  39.1209  37.1309 O.3            1 <1>                0.0000
     12 C12         30.2227  39.6127  36.2533 C.3            1 <1>                0.0000
     13 C13         29.7315  40.8658  35.5258 C.3            1 <1>                0.0000
     14 C14         31.4624  39.9565  37.0813 C.3            1 <1>                0.0000
     15 C15         30.5773  38.5338  35.2281 C.3            1 <1>                0.0000
     16 H16         30.3421  37.4907  42.0778 H              1 <1>                0.0000
     17 H17         28.8464  37.6042  43.0362 H              1 <1>                0.0000
     18 H18         29.5878  36.0156  42.7285 H              1 <1>                0.0000
     19 H19         28.3739  37.8523  40.6148 H              1 <1>                0.0000
     20 H20         30.2830  36.5082  39.7809 H              1 <1>                0.0000
     21 H21         29.5282  35.0323  40.4315 H              1 <1>                0.0000
     22 H22         29.0222  35.2379  38.0302 H              1 <1>                0.0000
     23 H23         26.5240  35.2217  38.1946 H              1 <1>                0.0000
     24 H24         27.2907  34.2665  39.4872 H              1 <1>                0.0000
     25 H25         26.3086  37.1454  39.7431 H              1 <1>                0.0000
     26 H26         25.4873  35.7076  40.3948 H              1 <1>                0.0000
     27 H27         29.4789  41.6344  36.2561 H              1 <1>                0.0000
     28 H28         30.5175  41.2349  34.8669 H              1 <1>                0.0000
     29 H29         28.8483  40.6208  34.9358 H              1 <1>                0.0000
     30 H30         31.8122  39.0638  37.5996 H              1 <1>                0.0000
     31 H31         32.2484  40.3257  36.4225 H              1 <1>                0.0000
     32 H32         31.2097  40.7252  37.8117 H              1 <1>                0.0000
     33 H33         29.6941  38.2886  34.6382 H              1 <1>                0.0000
     34 H34         31.3633  38.9028  34.5693 H              1 <1>                0.0000
     35 H35         30.9271  37.6409  35.7464 H              1 <1>                0.0000
     36 H36         27.4647  35.2780  41.6883 H              1 <1>                0.0000
     37 H37         26.8076  36.7417  42.0582 H              1 <1>                0.0000
     38 H38         27.4091  37.5788  38.0730 H              1 <1>                0.0000
@<TRIPOS>BOND
    1    1    2 1     
    2    1   16 1     
    3    1   17 1     
    4    1   18 1     
    5    2    3 1     
    6    2    7 1     
    7    2   19 1     
    8    3    4 1     
    9    3   20 1     
   10    3   21 1     
   11    4    5 1     
   12    4    8 1     
   13    4   22 1     
   14    5    6 1     
   15    5   23 1     
   16    5   24 1     
   17    6    7 1     
   18    6   25 1     
   19    6   26 1     
   20    7   36 1     
   21    7   37 1     
   22    8    9 am    
   23    8   38 1     
   24    9   10 2     
   25    9   11 1     
   26   11   12 1     
   27   12   13 1     
   28   12   14 1     
   29   12   15 1     
   30   13   27 1     
   31   13   28 1     
   32   13   29 1     
   33   14   30 1     
   34   14   31 1     
   35   14   32 1     
   36   15   33 1     
   37   15   34 1     
   38   15   35 1     
@<TRIPOS>SUBSTRUCTURE
      1 ****           1
@<TRIPOS>SET
DONOR_HYDROGENS      STATIC     ATOMS    <user>   **** ""
3 36 37 38
ATOM$RED        STATIC     ATOMS    COLORGROUP SYSTEM
3 36 37 38
@<TRIPOS>COMMENT
> <Gold.Version>
2022.2.0

> <Gold.Id.Protein>
1qkm|1qkm_protein|mol2

> <Gold.Protein.RotatedTorsions>
[  496  491  490  487 ] final  -88.88 input  -89.99 | X-H torsion

> <Gold.Protein.ActiveResidues>
 MET295  LEU298  THR299  LEU301  ALA302  GLU305  TRP335  MET336  LEU339  MET340 
 GLY342  LEU343  ARG346  PHE356  ILE373  ILE376  PHE377  LEU380  LYS471  GLY472 
 MET473  HIS475  LEU476  LEU477  ASN478  MET479  VAL484  VAL487 

> <Gold.Protein.RotatedAtoms>
   36.7470   34.6605   41.0927 H   0  0  0  0  0  0  0  0  0  0  0  0  # atno 496  bound_to 491 

> <Gold.Score>
     Score     S(PLP)   S(hbond)     S(cho)   S(metal)  DE(clash)   DE(tors)     intcor
     35.54     -35.93       0.00       0.00       0.00       0.00       0.40       0.41

> <Gold.PLP.Fitness>
35.5428

> <Gold.PLP.PLP>
-35.9268

> <Gold.PLP.part.hbond>
-0.4764

> <Gold.PLP.part.metal>
0.0000

> <Gold.PLP.part.buried>
-3.8861

> <Gold.PLP.part.nonpolar>
-32.2107

> <Gold.PLP.part.repulsive>
0.0207

> <Gold.PLP.ligand.clash>
0.0000

> <Gold.PLP.ligand.torsion>
0.3984

> <Gold.PLP.Chemscore.Hbond>
0.0000

> <Gold.PLP.Chemscore.CHOScore>
0.0000

> <Gold.PLP.Chemscore.Metal>
0.0000

> <Gold.PLP.Chemscore.Internal.Correction>
0.4130

