#       Name:                EN300-92976_i004
#       Creating user name   aseyller
#       Creation time:       Sat Apr 22 06:40:18 2023


#       File generated by GOLD software.
#

@<TRIPOS>MOLECULE
EN300-92976_i004|amine_3|mol2|3775|dock18
    38    38     1
SMALL
USER_CHARGES


@<TRIPOS>ATOM
      1 C1          32.0978  38.1899  34.0025 C.3            1 <1>                0.0000
      2 C2          31.8143  37.7367  35.4361 C.3            1 <1>                0.0000
      3 C3          31.2080  36.3319  35.4158 C.3            1 <1>                0.0000
      4 C4          30.9258  35.8830  36.8525 C.3            1 <1>                0.0000
      5 C5          32.2255  35.9425  37.6602 C.3            1 <1>                0.0000
      6 C6          32.7941  37.3618  37.5973 C.3            1 <1>                0.0000
      7 N7          33.0672  37.7219  36.2008 N.4            1 <1>                1.0000
      8 N8          29.9318  36.7729  37.4575 N.am           1 <1>                0.0000
      9 C9          29.1218  36.3147  38.4324 C.2            1 <1>                0.0000
     10 O10         29.2159  35.1634  38.8094 O.2            1 <1>                0.0000
     11 O11         28.2083  37.1326  38.9886 O.3            1 <1>                0.0000
     12 C12         26.9892  36.5191  39.4843 C.3            1 <1>                0.0000
     13 C13         26.4714  35.5107  38.4567 C.3            1 <1>                0.0000
     14 C14         27.2800  35.7998  40.8030 C.3            1 <1>                0.0000
     15 C15         25.9316  37.6003  39.7156 C.3            1 <1>                0.0000
     16 H16         31.1672  38.2037  33.4351 H              1 <1>                0.0000
     17 H17         32.5297  39.1906  34.0166 H              1 <1>                0.0000
     18 H18         32.7984  37.4983  33.5348 H              1 <1>                0.0000
     19 H19         31.1128  38.4281  35.9032 H              1 <1>                0.0000
     20 H20         30.2770  36.3455  34.8491 H              1 <1>                0.0000
     21 H21         31.9089  35.6397  34.9492 H              1 <1>                0.0000
     22 H22         30.5464  34.8610  36.8471 H              1 <1>                0.0000
     23 H23         32.0218  35.6777  38.6976 H              1 <1>                0.0000
     24 H24         32.9474  35.2422  37.2401 H              1 <1>                0.0000
     25 H25         32.0715  38.0611  38.0178 H              1 <1>                0.0000
     26 H26         33.7195  37.4077  38.1714 H              1 <1>                0.0000
     27 H27         27.2247  34.7405  38.2919 H              1 <1>                0.0000
     28 H28         25.5562  35.0501  38.8288 H              1 <1>                0.0000
     29 H29         26.2641  36.0232  37.5172 H              1 <1>                0.0000
     30 H30         27.6489  36.5182  41.5350 H              1 <1>                0.0000
     31 H31         26.3649  35.3392  41.1751 H              1 <1>                0.0000
     32 H32         28.0335  35.0295  40.6382 H              1 <1>                0.0000
     33 H33         25.7244  38.1128  38.7762 H              1 <1>                0.0000
     34 H34         25.0165  37.1398  40.0878 H              1 <1>                0.0000
     35 H35         26.3005  38.3187  40.4476 H              1 <1>                0.0000
     36 H36         33.6982  37.0458  35.7973 H              1 <1>                0.0000
     37 H37         33.4913  38.6368  36.1673 H              1 <1>                0.0000
     38 H38         29.8566  37.6920  37.1566 H              1 <1>                0.0000
@<TRIPOS>BOND
    1    1    2 1     
    2    1   16 1     
    3    1   17 1     
    4    1   18 1     
    5    2    3 1     
    6    2    7 1     
    7    2   19 1     
    8    3    4 1     
    9    3   20 1     
   10    3   21 1     
   11    4    5 1     
   12    4    8 1     
   13    4   22 1     
   14    5    6 1     
   15    5   23 1     
   16    5   24 1     
   17    6    7 1     
   18    6   25 1     
   19    6   26 1     
   20    7   36 1     
   21    7   37 1     
   22    8    9 am    
   23    8   38 1     
   24    9   10 2     
   25    9   11 1     
   26   11   12 1     
   27   12   13 1     
   28   12   14 1     
   29   12   15 1     
   30   13   27 1     
   31   13   28 1     
   32   13   29 1     
   33   14   30 1     
   34   14   31 1     
   35   14   32 1     
   36   15   33 1     
   37   15   34 1     
   38   15   35 1     
@<TRIPOS>SUBSTRUCTURE
      1 ****           1
@<TRIPOS>SET
DONOR_HYDROGENS      STATIC     ATOMS    <user>   **** ""
3 36 37 38
ATOM$RED        STATIC     ATOMS    COLORGROUP SYSTEM
3 36 37 38
@<TRIPOS>COMMENT
> <Gold.Version>
2022.2.0

> <Gold.Id.Protein>
1qkm|1qkm_protein|mol2

> <Gold.Protein.RotatedTorsions>
[  496  491  490  487 ] final -127.37 input  -89.99 | X-H torsion

> <Gold.Protein.ActiveResidues>
 MET295  LEU298  THR299  LEU301  ALA302  GLU305  TRP335  MET336  LEU339  MET340 
 GLY342  LEU343  ARG346  PHE356  ILE373  ILE376  PHE377  LEU380  LYS471  GLY472 
 MET473  HIS475  LEU476  LEU477  ASN478  MET479  VAL484  VAL487 

> <Gold.Protein.RotatedAtoms>
   37.0849   34.2577   40.7609 H   0  0  0  0  0  0  0  0  0  0  0  0  # atno 496  bound_to 491 

> <Gold.Score>
     Score     S(PLP)   S(hbond)     S(cho)   S(metal)  DE(clash)   DE(tors)     intcor
     34.50     -35.93       0.00       0.00       0.00       0.00       0.92       0.41

> <Gold.PLP.Fitness>
34.4951

> <Gold.PLP.PLP>
-35.9253

> <Gold.PLP.part.hbond>
0.0000

> <Gold.PLP.part.metal>
0.0000

> <Gold.PLP.part.buried>
-2.2590

> <Gold.PLP.part.nonpolar>
-33.2340

> <Gold.PLP.part.repulsive>
0.0418

> <Gold.PLP.ligand.clash>
0.0000

> <Gold.PLP.ligand.torsion>
0.9216

> <Gold.PLP.Chemscore.Hbond>
0.0000

> <Gold.PLP.Chemscore.CHOScore>
0.0000

> <Gold.PLP.Chemscore.Metal>
0.0000

> <Gold.PLP.Chemscore.Internal.Correction>
0.4130

