#       Name:                EN300-92976_i004
#       Creating user name   aseyller
#       Creation time:       Sat Apr 22 06:40:13 2023


#       File generated by GOLD software.
#

@<TRIPOS>MOLECULE
EN300-92976_i004|amine_3|mol2|3775|dock10
    38    38     1
SMALL
USER_CHARGES


@<TRIPOS>ATOM
      1 C1          26.0980  36.0668  38.4802 C.3            1 <1>                0.0000
      2 C2          27.4136  35.9896  39.2573 C.3            1 <1>                0.0000
      3 C3          28.0438  37.3821  39.3317 C.3            1 <1>                0.0000
      4 C4          29.3601  37.2996  40.1100 C.3            1 <1>                0.0000
      5 C5          29.0857  36.7118  41.4972 C.3            1 <1>                0.0000
      6 C6          28.4169  35.3442  41.3426 C.3            1 <1>                0.0000
      7 N7          27.1516  35.4940  40.6138 N.4            1 <1>                1.0000
      8 N8          30.3015  36.4382  39.3905 N.am           1 <1>                0.0000
      9 C9          30.6835  36.7560  38.1376 C.2            1 <1>                0.0000
     10 O10         30.2469  37.7570  37.6049 O.2            1 <1>                0.0000
     11 O11         31.5488  35.9643  37.4763 O.3            1 <1>                0.0000
     12 C12         32.1441  36.5041  36.2670 C.3            1 <1>                0.0000
     13 C13         32.7927  37.8547  36.5768 C.3            1 <1>                0.0000
     14 C14         33.2074  35.5353  35.7457 C.3            1 <1>                0.0000
     15 C15         31.0596  36.6910  35.2041 C.3            1 <1>                0.0000
     16 H16         26.2925  36.4323  37.4718 H              1 <1>                0.0000
     17 H17         25.6488  35.0751  38.4269 H              1 <1>                0.0000
     18 H18         25.4154  36.7481  38.9881 H              1 <1>                0.0000
     19 H19         28.0963  35.3090  38.7484 H              1 <1>                0.0000
     20 H20         28.2392  37.7474  38.3236 H              1 <1>                0.0000
     21 H21         27.3620  38.0634  39.8408 H              1 <1>                0.0000
     22 H22         29.7848  38.2981  40.2146 H              1 <1>                0.0000
     23 H23         30.0258  36.5983  42.0369 H              1 <1>                0.0000
     24 H24         28.4256  37.3793  42.0512 H              1 <1>                0.0000
     25 H25         29.0780  34.6777  40.7887 H              1 <1>                0.0000
     26 H26         28.2203  34.9229  42.3283 H              1 <1>                0.0000
     27 H27         33.5653  37.7216  37.3340 H              1 <1>                0.0000
     28 H28         33.2396  38.2600  35.6690 H              1 <1>                0.0000
     29 H29         32.0351  38.5449  36.9481 H              1 <1>                0.0000
     30 H30         32.7454  34.5731  35.5250 H              1 <1>                0.0000
     31 H31         33.6544  35.9405  34.8379 H              1 <1>                0.0000
     32 H32         33.9801  35.4021  36.5029 H              1 <1>                0.0000
     33 H33         30.3020  37.3811  35.5754 H              1 <1>                0.0000
     34 H34         31.5064  37.0961  34.2963 H              1 <1>                0.0000
     35 H35         30.5974  35.7287  34.9834 H              1 <1>                0.0000
     36 H36         26.5592  36.1492  41.1016 H              1 <1>                0.0000
     37 H37         26.6877  34.5996  40.5603 H              1 <1>                0.0000
     38 H38         30.6501  35.6390  39.8157 H              1 <1>                0.0000
@<TRIPOS>BOND
    1    1    2 1     
    2    1   16 1     
    3    1   17 1     
    4    1   18 1     
    5    2    3 1     
    6    2    7 1     
    7    2   19 1     
    8    3    4 1     
    9    3   20 1     
   10    3   21 1     
   11    4    5 1     
   12    4    8 1     
   13    4   22 1     
   14    5    6 1     
   15    5   23 1     
   16    5   24 1     
   17    6    7 1     
   18    6   25 1     
   19    6   26 1     
   20    7   36 1     
   21    7   37 1     
   22    8    9 am    
   23    8   38 1     
   24    9   10 2     
   25    9   11 1     
   26   11   12 1     
   27   12   13 1     
   28   12   14 1     
   29   12   15 1     
   30   13   27 1     
   31   13   28 1     
   32   13   29 1     
   33   14   30 1     
   34   14   31 1     
   35   14   32 1     
   36   15   33 1     
   37   15   34 1     
   38   15   35 1     
@<TRIPOS>SUBSTRUCTURE
      1 ****           1
@<TRIPOS>SET
DONOR_HYDROGENS      STATIC     ATOMS    <user>   **** ""
3 36 37 38
ATOM$RED        STATIC     ATOMS    COLORGROUP SYSTEM
3 36 37 38
@<TRIPOS>COMMENT
> <Gold.Version>
2022.2.0

> <Gold.Id.Protein>
1qkm|1qkm_protein|mol2

> <Gold.Protein.RotatedTorsions>
[  496  491  490  487 ] final -116.77 input  -89.99 | X-H torsion

> <Gold.Protein.ActiveResidues>
 MET295  LEU298  THR299  LEU301  ALA302  GLU305  TRP335  MET336  LEU339  MET340 
 GLY342  LEU343  ARG346  PHE356  ILE373  ILE376  PHE377  LEU380  LYS471  GLY472 
 MET473  HIS475  LEU476  LEU477  ASN478  MET479  VAL484  VAL487 

> <Gold.Protein.RotatedAtoms>
   36.9990   34.3965   40.8216 H   0  0  0  0  0  0  0  0  0  0  0  0  # atno 496  bound_to 491 

> <Gold.Score>
     Score     S(PLP)   S(hbond)     S(cho)   S(metal)  DE(clash)   DE(tors)     intcor
     36.39     -36.45       0.00       0.00       0.00       0.11       0.18       0.42

> <Gold.PLP.Fitness>
36.3924

> <Gold.PLP.PLP>
-36.4511

> <Gold.PLP.part.hbond>
0.0000

> <Gold.PLP.part.metal>
0.0000

> <Gold.PLP.part.buried>
-4.0261

> <Gold.PLP.part.nonpolar>
-32.4212

> <Gold.PLP.part.repulsive>
0.0436

> <Gold.PLP.ligand.clash>
0.1106

> <Gold.PLP.ligand.torsion>
0.1838

> <Gold.PLP.Chemscore.Hbond>
0.0000

> <Gold.PLP.Chemscore.CHOScore>
0.0000

> <Gold.PLP.Chemscore.Metal>
0.0000

> <Gold.PLP.Chemscore.Internal.Correction>
0.4195

