#       Name:                EN300-92976_i004
#       Creating user name   aseyller
#       Creation time:       Sat Apr 22 06:40:15 2023


#       File generated by GOLD software.
#

@<TRIPOS>MOLECULE
EN300-92976_i004|amine_3|mol2|3775|dock14
    38    38     1
SMALL
USER_CHARGES


@<TRIPOS>ATOM
      1 C1          25.7971  37.6007  39.9598 C.3            1 <1>                0.0000
      2 C2          27.0254  36.9115  39.3622 C.3            1 <1>                0.0000
      3 C3          28.0725  36.6972  40.4572 C.3            1 <1>                0.0000
      4 C4          29.2998  36.0076  39.8543 C.3            1 <1>                0.0000
      5 C5          28.8649  34.6922  39.2018 C.3            1 <1>                0.0000
      6 C6          27.7884  34.9808  38.1532 C.3            1 <1>                0.0000
      7 N7          26.6317  35.6156  38.7963 N.4            1 <1>                1.0000
      8 N8          29.9046  36.8792  38.8440 N.am           1 <1>                0.0000
      9 C9          31.0404  36.5040  38.2231 C.2            1 <1>                0.0000
     10 O10         31.5629  35.4429  38.5013 O.2            1 <1>                0.0000
     11 O11         31.5962  37.3051  37.2945 O.3            1 <1>                0.0000
     12 C12         32.5898  36.7092  36.4193 C.3            1 <1>                0.0000
     13 C13         32.9678  37.7072  35.3230 C.3            1 <1>                0.0000
     14 C14         33.8348  36.3485  37.2322 C.3            1 <1>                0.0000
     15 C15         32.0137  35.4439  35.7806 C.3            1 <1>                0.0000
     16 H16         26.0886  38.5643  40.3777 H              1 <1>                0.0000
     17 H17         25.0510  37.7535  39.1800 H              1 <1>                0.0000
     18 H18         25.3768  36.9753  40.7473 H              1 <1>                0.0000
     19 H19         27.4460  37.5378  38.5754 H              1 <1>                0.0000
     20 H20         28.3648  37.6607  40.8748 H              1 <1>                0.0000
     21 H21         27.6530  36.0707  41.2444 H              1 <1>                0.0000
     22 H22         30.0255  35.8017  40.6412 H              1 <1>                0.0000
     23 H23         29.7236  34.2226  38.7221 H              1 <1>                0.0000
     24 H24         28.4619  34.0242  39.9630 H              1 <1>                0.0000
     25 H25         28.1927  35.6487  37.3926 H              1 <1>                0.0000
     26 H26         27.4766  34.0464  37.6866 H              1 <1>                0.0000
     27 H27         33.3783  38.6086  35.7780 H              1 <1>                0.0000
     28 H28         33.7137  37.2598  34.6659 H              1 <1>                0.0000
     29 H29         32.0809  37.9640  34.7438 H              1 <1>                0.0000
     30 H30         33.5655  35.6377  38.0132 H              1 <1>                0.0000
     31 H31         34.5807  35.9013  36.5752 H              1 <1>                0.0000
     32 H32         34.2453  37.2500  37.6872 H              1 <1>                0.0000
     33 H33         31.1266  35.7007  35.2015 H              1 <1>                0.0000
     34 H34         32.7595  34.9965  35.1236 H              1 <1>                0.0000
     35 H35         31.7442  34.7329  36.5617 H              1 <1>                0.0000
     36 H36         26.2881  35.0183  39.5333 H              1 <1>                0.0000
     37 H37         25.9031  35.7557  38.1125 H              1 <1>                0.0000
     38 H38         29.4875  37.7263  38.6219 H              1 <1>                0.0000
@<TRIPOS>BOND
    1    1    2 1     
    2    1   16 1     
    3    1   17 1     
    4    1   18 1     
    5    2    3 1     
    6    2    7 1     
    7    2   19 1     
    8    3    4 1     
    9    3   20 1     
   10    3   21 1     
   11    4    5 1     
   12    4    8 1     
   13    4   22 1     
   14    5    6 1     
   15    5   23 1     
   16    5   24 1     
   17    6    7 1     
   18    6   25 1     
   19    6   26 1     
   20    7   36 1     
   21    7   37 1     
   22    8    9 am    
   23    8   38 1     
   24    9   10 2     
   25    9   11 1     
   26   11   12 1     
   27   12   13 1     
   28   12   14 1     
   29   12   15 1     
   30   13   27 1     
   31   13   28 1     
   32   13   29 1     
   33   14   30 1     
   34   14   31 1     
   35   14   32 1     
   36   15   33 1     
   37   15   34 1     
   38   15   35 1     
@<TRIPOS>SUBSTRUCTURE
      1 ****           1
@<TRIPOS>SET
DONOR_HYDROGENS      STATIC     ATOMS    <user>   **** ""
3 36 37 38
ATOM$RED        STATIC     ATOMS    COLORGROUP SYSTEM
3 36 37 38
@<TRIPOS>COMMENT
> <Gold.Version>
2022.2.0

> <Gold.Id.Protein>
1qkm|1qkm_protein|mol2

> <Gold.Protein.RotatedTorsions>
[  496  491  490  487 ] final   53.10 input  -89.99 | X-H torsion

> <Gold.Protein.ActiveResidues>
 MET295  LEU298  THR299  LEU301  ALA302  GLU305  TRP335  MET336  LEU339  MET340 
 GLY342  LEU343  ARG346  PHE356  ILE373  ILE376  PHE377  LEU380  LYS471  GLY472 
 MET473  HIS475  LEU476  LEU477  ASN478  MET479  VAL484  VAL487 

> <Gold.Protein.RotatedAtoms>
   36.4963   33.4111   42.3404 H   0  0  0  0  0  0  0  0  0  0  0  0  # atno 496  bound_to 491 

> <Gold.Score>
     Score     S(PLP)   S(hbond)     S(cho)   S(metal)  DE(clash)   DE(tors)     intcor
     35.99     -36.10       0.00       0.00       0.00       0.00       0.26       0.41

> <Gold.PLP.Fitness>
35.9891

> <Gold.PLP.PLP>
-36.0996

> <Gold.PLP.part.hbond>
0.0000

> <Gold.PLP.part.metal>
0.0000

> <Gold.PLP.part.buried>
-5.1025

> <Gold.PLP.part.nonpolar>
-31.1286

> <Gold.PLP.part.repulsive>
0.1298

> <Gold.PLP.ligand.clash>
0.0000

> <Gold.PLP.ligand.torsion>
0.2617

> <Gold.PLP.Chemscore.Hbond>
0.0000

> <Gold.PLP.Chemscore.CHOScore>
0.0000

> <Gold.PLP.Chemscore.Metal>
0.0000

> <Gold.PLP.Chemscore.Internal.Correction>
0.4130

