#       Name:                EN300-92976_i004
#       Creating user name   aseyller
#       Creation time:       Sat Apr 22 06:40:09 2023


#       File generated by GOLD software.
#

@<TRIPOS>MOLECULE
EN300-92976_i004|amine_3|mol2|3775|dock5
    38    38     1
SMALL
USER_CHARGES


@<TRIPOS>ATOM
      1 C1          25.8235  36.9502  42.6510 C.3            1 <1>                0.0000
      2 C2          26.3557  37.0501  41.2200 C.3            1 <1>                0.0000
      3 C3          27.1565  35.7898  40.8853 C.3            1 <1>                0.0000
      4 C4          27.6872  35.8946  39.4526 C.3            1 <1>                0.0000
      5 C5          26.5096  36.1050  38.4965 C.3            1 <1>                0.0000
      6 C6          25.7328  37.3535  38.9198 C.3            1 <1>                0.0000
      7 N7          25.2295  37.1807  40.2878 N.4            1 <1>                1.0000
      8 N8          28.6079  37.0297  39.3530 N.am           1 <1>                0.0000
      9 C9          29.1248  37.3752  38.1572 C.2            1 <1>                0.0000
     10 O10         28.8272  36.7452  37.1617 O.2            1 <1>                0.0000
     11 O11         29.9710  38.4185  38.0656 O.3            1 <1>                0.0000
     12 C12         30.1363  39.0201  36.7545 C.3            1 <1>                0.0000
     13 C13         30.9605  40.3028  36.8823 C.3            1 <1>                0.0000
     14 C14         30.8602  38.0386  35.8306 C.3            1 <1>                0.0000
     15 C15         28.7625  39.3528  36.1692 C.3            1 <1>                0.0000
     16 H16         26.6596  36.8560  43.3439 H              1 <1>                0.0000
     17 H17         25.2530  37.8478  42.8899 H              1 <1>                0.0000
     18 H18         25.1787  36.0758  42.7386 H              1 <1>                0.0000
     19 H19         27.0013  37.9241  41.1332 H              1 <1>                0.0000
     20 H20         27.9932  35.6958  41.5775 H              1 <1>                0.0000
     21 H21         26.5117  34.9152  40.9715 H              1 <1>                0.0000
     22 H22         28.2105  34.9752  39.1897 H              1 <1>                0.0000
     23 H23         26.8840  36.2360  37.4813 H              1 <1>                0.0000
     24 H24         25.8515  35.2369  38.5332 H              1 <1>                0.0000
     25 H25         26.3919  38.2209  38.8825 H              1 <1>                0.0000
     26 H26         24.8937  37.5063  38.2411 H              1 <1>                0.0000
     27 H27         31.9393  40.0658  37.2993 H              1 <1>                0.0000
     28 H28         31.0846  40.7545  35.8980 H              1 <1>                0.0000
     29 H29         30.4448  41.0021  37.5404 H              1 <1>                0.0000
     30 H30         30.2731  37.1249  35.7397 H              1 <1>                0.0000
     31 H31         30.9844  38.4903  34.8464 H              1 <1>                0.0000
     32 H32         31.8390  37.8016  36.2477 H              1 <1>                0.0000
     33 H33         28.2467  40.0520  36.8274 H              1 <1>                0.0000
     34 H34         28.8865  39.8044  35.1850 H              1 <1>                0.0000
     35 H35         28.1752  38.4390  36.0782 H              1 <1>                0.0000
     36 H36         24.6589  36.3496  40.3327 H              1 <1>                0.0000
     37 H37         24.6731  37.9824  40.5441 H              1 <1>                0.0000
     38 H38         28.8456  37.5326  40.1476 H              1 <1>                0.0000
@<TRIPOS>BOND
    1    1    2 1     
    2    1   16 1     
    3    1   17 1     
    4    1   18 1     
    5    2    3 1     
    6    2    7 1     
    7    2   19 1     
    8    3    4 1     
    9    3   20 1     
   10    3   21 1     
   11    4    5 1     
   12    4    8 1     
   13    4   22 1     
   14    5    6 1     
   15    5   23 1     
   16    5   24 1     
   17    6    7 1     
   18    6   25 1     
   19    6   26 1     
   20    7   36 1     
   21    7   37 1     
   22    8    9 am    
   23    8   38 1     
   24    9   10 2     
   25    9   11 1     
   26   11   12 1     
   27   12   13 1     
   28   12   14 1     
   29   12   15 1     
   30   13   27 1     
   31   13   28 1     
   32   13   29 1     
   33   14   30 1     
   34   14   31 1     
   35   14   32 1     
   36   15   33 1     
   37   15   34 1     
   38   15   35 1     
@<TRIPOS>SUBSTRUCTURE
      1 ****           1
@<TRIPOS>SET
DONOR_HYDROGENS      STATIC     ATOMS    <user>   **** ""
3 36 37 38
ATOM$RED        STATIC     ATOMS    COLORGROUP SYSTEM
3 36 37 38
@<TRIPOS>COMMENT
> <Gold.Version>
2022.2.0

> <Gold.Id.Protein>
1qkm|1qkm_protein|mol2

> <Gold.Protein.RotatedTorsions>
[  496  491  490  487 ] final   34.36 input  -89.99 | X-H torsion

> <Gold.Protein.ActiveResidues>
 MET295  LEU298  THR299  LEU301  ALA302  GLU305  TRP335  MET336  LEU339  MET340 
 GLY342  LEU343  ARG346  PHE356  ILE373  ILE376  PHE377  LEU380  LYS471  GLY472 
 MET473  HIS475  LEU476  LEU477  ASN478  MET479  VAL484  VAL487 

> <Gold.Protein.RotatedAtoms>
   36.3698   33.6877   42.3833 H   0  0  0  0  0  0  0  0  0  0  0  0  # atno 496  bound_to 491 

> <Gold.Score>
     Score     S(PLP)   S(hbond)     S(cho)   S(metal)  DE(clash)   DE(tors)     intcor
     38.74     -38.11       0.30       0.00       0.00       0.00       0.36       0.44

> <Gold.PLP.Fitness>
38.7380

> <Gold.PLP.PLP>
-38.1080

> <Gold.PLP.part.hbond>
-1.0000

> <Gold.PLP.part.metal>
0.0000

> <Gold.PLP.part.buried>
4.6113

> <Gold.PLP.part.nonpolar>
-42.4168

> <Gold.PLP.part.repulsive>
0.1429

> <Gold.PLP.ligand.clash>
0.0000

> <Gold.PLP.ligand.torsion>
0.3596

> <Gold.PLP.Chemscore.Hbond>
0.3019

> <Gold.PLP.Chemscore.CHOScore>
0.0000

> <Gold.PLP.Chemscore.Metal>
0.0000

> <Gold.Chemscore.Hbonds>
donor molecule, donor type, donor heavy atom, donor atom, acceptor molecule, acceptor atom, score
      L1  H     7    36       P1  1131  0.30

> <Gold.PLP.Chemscore.Internal.Correction>
0.4436

