#       Name:                EN300-92976_i004
#       Creating user name   aseyller
#       Creation time:       Sat Apr 22 06:40:11 2023


#       File generated by GOLD software.
#

@<TRIPOS>MOLECULE
EN300-92976_i004|amine_3|mol2|3775|dock8
    38    38     1
SMALL
USER_CHARGES


@<TRIPOS>ATOM
      1 C1          34.0200  36.4060  35.1591 C.3            1 <1>                0.0000
      2 C2          32.5655  36.6750  35.5500 C.3            1 <1>                0.0000
      3 C3          32.5141  37.8178  36.5662 C.3            1 <1>                0.0000
      4 C4          31.0567  38.0831  36.9546 C.3            1 <1>                0.0000
      5 C5          30.2502  38.3939  35.6903 C.3            1 <1>                0.0000
      6 C6          30.3855  37.2296  34.7066 C.3            1 <1>                0.0000
      7 N7          31.7983  37.0437  34.3542 N.4            1 <1>                1.0000
      8 N8          30.5010  36.8972  37.6110 N.am           1 <1>                0.0000
      9 C9          29.7093  37.0345  38.6930 C.2            1 <1>                0.0000
     10 O10         29.4566  38.1421  39.1242 O.2            1 <1>                0.0000
     11 O11         29.1986  35.9446  39.2963 O.3            1 <1>                0.0000
     12 C12         28.1830  36.1671  40.3099 C.3            1 <1>                0.0000
     13 C13         28.7977  36.9210  41.4908 C.3            1 <1>                0.0000
     14 C14         27.0415  36.9944  39.7151 C.3            1 <1>                0.0000
     15 C15         27.6395  34.8205  40.7917 C.3            1 <1>                0.0000
     16 H16         34.5896  36.1294  36.0464 H              1 <1>                0.0000
     17 H17         34.0571  35.5919  34.4352 H              1 <1>                0.0000
     18 H18         34.4496  37.3049  34.7172 H              1 <1>                0.0000
     19 H19         32.1366  35.7760  35.9929 H              1 <1>                0.0000
     20 H20         33.0829  37.5413  37.4540 H              1 <1>                0.0000
     21 H21         32.9425  38.7174  36.1242 H              1 <1>                0.0000
     22 H22         31.0098  38.9333  37.6351 H              1 <1>                0.0000
     23 H23         29.2009  38.5291  35.9521 H              1 <1>                0.0000
     24 H24         30.6317  39.3054  35.2303 H              1 <1>                0.0000
     25 H25         30.0036  36.3188  35.1677 H              1 <1>                0.0000
     26 H26         29.8124  37.4476  33.8055 H              1 <1>                0.0000
     27 H27         29.1848  37.8804  41.1476 H              1 <1>                0.0000
     28 H28         28.0353  37.0881  42.2517 H              1 <1>                0.0000
     29 H29         29.6108  36.3316  41.9146 H              1 <1>                0.0000
     30 H30         26.6037  36.4573  38.8738 H              1 <1>                0.0000
     31 H31         26.2792  37.1616  40.4760 H              1 <1>                0.0000
     32 H32         27.4287  37.9538  39.3718 H              1 <1>                0.0000
     33 H33         28.4527  34.2311  41.2154 H              1 <1>                0.0000
     34 H34         26.8771  34.9876  41.5525 H              1 <1>                0.0000
     35 H35         27.2016  34.2834  39.9503 H              1 <1>                0.0000
     36 H36         32.1645  37.9029  33.9726 H              1 <1>                0.0000
     37 H37         31.8783  36.3109  33.6653 H              1 <1>                0.0000
     38 H38         30.7028  36.0130  37.2668 H              1 <1>                0.0000
@<TRIPOS>BOND
    1    1    2 1     
    2    1   16 1     
    3    1   17 1     
    4    1   18 1     
    5    2    3 1     
    6    2    7 1     
    7    2   19 1     
    8    3    4 1     
    9    3   20 1     
   10    3   21 1     
   11    4    5 1     
   12    4    8 1     
   13    4   22 1     
   14    5    6 1     
   15    5   23 1     
   16    5   24 1     
   17    6    7 1     
   18    6   25 1     
   19    6   26 1     
   20    7   36 1     
   21    7   37 1     
   22    8    9 am    
   23    8   38 1     
   24    9   10 2     
   25    9   11 1     
   26   11   12 1     
   27   12   13 1     
   28   12   14 1     
   29   12   15 1     
   30   13   27 1     
   31   13   28 1     
   32   13   29 1     
   33   14   30 1     
   34   14   31 1     
   35   14   32 1     
   36   15   33 1     
   37   15   34 1     
   38   15   35 1     
@<TRIPOS>SUBSTRUCTURE
      1 ****           1
@<TRIPOS>SET
DONOR_HYDROGENS      STATIC     ATOMS    <user>   **** ""
3 36 37 38
ATOM$RED        STATIC     ATOMS    COLORGROUP SYSTEM
3 36 37 38
@<TRIPOS>COMMENT
> <Gold.Version>
2022.2.0

> <Gold.Id.Protein>
1qkm|1qkm_protein|mol2

> <Gold.Protein.RotatedTorsions>
[  496  491  490  487 ] final   41.39 input  -89.99 | X-H torsion

> <Gold.Protein.ActiveResidues>
 MET295  LEU298  THR299  LEU301  ALA302  GLU305  TRP335  MET336  LEU339  MET340 
 GLY342  LEU343  ARG346  PHE356  ILE373  ILE376  PHE377  LEU380  LYS471  GLY472 
 MET473  HIS475  LEU476  LEU477  ASN478  MET479  VAL484  VAL487 

> <Gold.Protein.RotatedAtoms>
   36.4127   33.5803   42.3775 H   0  0  0  0  0  0  0  0  0  0  0  0  # atno 496  bound_to 491 

> <Gold.Score>
     Score     S(PLP)   S(hbond)     S(cho)   S(metal)  DE(clash)   DE(tors)     intcor
     37.49     -35.48       0.99       0.00       0.00       0.66       0.36       0.43

> <Gold.PLP.Fitness>
37.4900

> <Gold.PLP.PLP>
-35.4781

> <Gold.PLP.part.hbond>
-1.0000

> <Gold.PLP.part.metal>
0.0000

> <Gold.PLP.part.buried>
-1.1251

> <Gold.PLP.part.nonpolar>
-33.6639

> <Gold.PLP.part.repulsive>
0.1056

> <Gold.PLP.ligand.clash>
0.6634

> <Gold.PLP.ligand.torsion>
0.3634

> <Gold.PLP.Chemscore.Hbond>
0.9913

> <Gold.PLP.Chemscore.CHOScore>
0.0000

> <Gold.PLP.Chemscore.Metal>
0.0000

> <Gold.Chemscore.Hbonds>
donor molecule, donor type, donor heavy atom, donor atom, acceptor molecule, acceptor atom, score
      L1  H     7    37       P1  3187  0.99

> <Gold.PLP.Chemscore.Internal.Correction>
0.4282

