#       Name:                EN300-92976_i004
#       Creating user name   aseyller
#       Creation time:       Sat Apr 22 06:40:11 2023


#       File generated by GOLD software.
#

@<TRIPOS>MOLECULE
EN300-92976_i004|amine_3|mol2|3775|dock7
    38    38     1
SMALL
USER_CHARGES


@<TRIPOS>ATOM
      1 C1          25.8623  37.5095  41.8317 C.3            1 <1>                0.0000
      2 C2          26.7239  36.9996  40.6748 C.3            1 <1>                0.0000
      3 C3          27.7117  35.9544  41.1974 C.3            1 <1>                0.0000
      4 C4          28.5719  35.4475  40.0362 C.3            1 <1>                0.0000
      5 C5          27.6574  34.8864  38.9434 C.3            1 <1>                0.0000
      6 C6          26.6716  35.9712  38.5043 C.3            1 <1>                0.0000
      7 N7          25.8613  36.3950  39.6526 N.4            1 <1>                1.0000
      8 N8          29.3627  36.5544  39.4927 N.am           1 <1>                0.0000
      9 C9          30.3696  36.3044  38.6324 C.2            1 <1>                0.0000
     10 O10         30.6216  35.1609  38.3077 O.2            1 <1>                0.0000
     11 O11         31.0964  37.3218  38.1328 O.3            1 <1>                0.0000
     12 C12         31.8931  37.0446  36.9509 C.3            1 <1>                0.0000
     13 C13         33.0326  36.0912  37.3161 C.3            1 <1>                0.0000
     14 C14         31.0107  36.3986  35.8809 C.3            1 <1>                0.0000
     15 C15         32.4756  38.3521  36.4104 C.3            1 <1>                0.0000
     16 H16         26.5022  37.9611  42.5898 H              1 <1>                0.0000
     17 H17         25.1584  38.2541  41.4598 H              1 <1>                0.0000
     18 H18         25.3123  36.6766  42.2696 H              1 <1>                0.0000
     19 H19         27.2744  37.8328  40.2378 H              1 <1>                0.0000
     20 H20         28.3524  36.4059  41.9549 H              1 <1>                0.0000
     21 H21         27.1622  35.1206  41.6344 H              1 <1>                0.0000
     22 H22         29.2386  34.6621  40.3923 H              1 <1>                0.0000
     23 H23         28.2593  34.5745  38.0899 H              1 <1>                0.0000
     24 H24         27.1068  34.0305  39.3337 H              1 <1>                0.0000
     25 H25         27.2233  36.8264  38.1141 H              1 <1>                0.0000
     26 H26         26.0191  35.5751  37.7263 H              1 <1>                0.0000
     27 H27         32.6178  35.1597  37.7012 H              1 <1>                0.0000
     28 H28         33.6308  35.8831  36.4289 H              1 <1>                0.0000
     29 H29         33.6614  36.5515  38.0783 H              1 <1>                0.0000
     30 H30         30.1989  37.0779  35.6209 H              1 <1>                0.0000
     31 H31         31.6087  36.1905  34.9938 H              1 <1>                0.0000
     32 H32         30.5957  35.4671  36.2661 H              1 <1>                0.0000
     33 H33         33.1043  38.8124  37.1726 H              1 <1>                0.0000
     34 H34         33.0736  38.1441  35.5232 H              1 <1>                0.0000
     35 H35         31.6638  39.0314  36.1503 H              1 <1>                0.0000
     36 H36         25.3890  35.5936  40.0436 H              1 <1>                0.0000
     37 H37         25.1768  37.0711  39.3486 H              1 <1>                0.0000
     38 H38         29.1616  37.4672  39.7519 H              1 <1>                0.0000
@<TRIPOS>BOND
    1    1    2 1     
    2    1   16 1     
    3    1   17 1     
    4    1   18 1     
    5    2    3 1     
    6    2    7 1     
    7    2   19 1     
    8    3    4 1     
    9    3   20 1     
   10    3   21 1     
   11    4    5 1     
   12    4    8 1     
   13    4   22 1     
   14    5    6 1     
   15    5   23 1     
   16    5   24 1     
   17    6    7 1     
   18    6   25 1     
   19    6   26 1     
   20    7   36 1     
   21    7   37 1     
   22    8    9 am    
   23    8   38 1     
   24    9   10 2     
   25    9   11 1     
   26   11   12 1     
   27   12   13 1     
   28   12   14 1     
   29   12   15 1     
   30   13   27 1     
   31   13   28 1     
   32   13   29 1     
   33   14   30 1     
   34   14   31 1     
   35   14   32 1     
   36   15   33 1     
   37   15   34 1     
   38   15   35 1     
@<TRIPOS>SUBSTRUCTURE
      1 ****           1
@<TRIPOS>SET
DONOR_HYDROGENS      STATIC     ATOMS    <user>   **** ""
3 36 37 38
ATOM$RED        STATIC     ATOMS    COLORGROUP SYSTEM
3 36 37 38
@<TRIPOS>COMMENT
> <Gold.Version>
2022.2.0

> <Gold.Id.Protein>
1qkm|1qkm_protein|mol2

> <Gold.Protein.RotatedTorsions>
[  496  491  490  487 ] final   -4.56 input  -89.99 | X-H torsion

> <Gold.Protein.ActiveResidues>
 MET295  LEU298  THR299  LEU301  ALA302  GLU305  TRP335  MET336  LEU339  MET340 
 GLY342  LEU343  ARG346  PHE356  ILE373  ILE376  PHE377  LEU380  LYS471  GLY472 
 MET473  HIS475  LEU476  LEU477  ASN478  MET479  VAL484  VAL487 

> <Gold.Protein.RotatedAtoms>
   36.2589   34.2772   42.1963 H   0  0  0  0  0  0  0  0  0  0  0  0  # atno 496  bound_to 491 

> <Gold.Score>
     Score     S(PLP)   S(hbond)     S(cho)   S(metal)  DE(clash)   DE(tors)     intcor
     38.55     -38.96       0.00       0.00       0.00       0.00       0.42       0.43

> <Gold.PLP.Fitness>
38.5525

> <Gold.PLP.PLP>
-38.9610

> <Gold.PLP.part.hbond>
0.0000

> <Gold.PLP.part.metal>
0.0000

> <Gold.PLP.part.buried>
-2.8339

> <Gold.PLP.part.nonpolar>
-36.5879

> <Gold.PLP.part.repulsive>
0.1437

> <Gold.PLP.ligand.clash>
0.0000

> <Gold.PLP.ligand.torsion>
0.4183

> <Gold.PLP.Chemscore.Hbond>
0.0000

> <Gold.PLP.Chemscore.CHOScore>
0.0000

> <Gold.PLP.Chemscore.Metal>
0.0000

> <Gold.PLP.Chemscore.Internal.Correction>
0.4282

