#       Name:                EN300-92976_i004
#       Creating user name   aseyller
#       Creation time:       Sat Apr 22 06:40:09 2023


#       File generated by GOLD software.
#

@<TRIPOS>MOLECULE
EN300-92976_i004|amine_3|mol2|3775|dock4
    38    38     1
SMALL
USER_CHARGES


@<TRIPOS>ATOM
      1 C1          32.6579  35.2601  35.9276 C.3            1 <1>                0.0000
      2 C2          31.6634  36.4142  35.7867 C.3            1 <1>                0.0000
      3 C3          31.9381  37.4586  36.8708 C.3            1 <1>                0.0000
      4 C4          30.9402  38.6113  36.7259 C.3            1 <1>                0.0000
      5 C5          31.0522  39.1960  35.3149 C.3            1 <1>                0.0000
      6 C6          30.8103  38.0873  34.2885 C.3            1 <1>                0.0000
      7 N7          31.8118  37.0282  34.4617 N.4            1 <1>                1.0000
      8 N8          29.5802  38.1121  36.9428 N.am           1 <1>                0.0000
      9 C9          29.2256  37.6242  38.1481 C.2            1 <1>                0.0000
     10 O10         30.0341  37.5983  39.0548 O.2            1 <1>                0.0000
     11 O11         27.9756  37.1654  38.3475 O.3            1 <1>                0.0000
     12 C12         27.8085  36.1161  39.3372 C.3            1 <1>                0.0000
     13 C13         28.8309  35.0069  39.0819 C.3            1 <1>                0.0000
     14 C14         28.0237  36.6961  40.7366 C.3            1 <1>                0.0000
     15 C15         26.3948  35.5399  39.2359 C.3            1 <1>                0.0000
     16 H16         32.5461  34.8021  36.9104 H              1 <1>                0.0000
     17 H17         32.4625  34.5159  35.1556 H              1 <1>                0.0000
     18 H18         33.6734  35.6402  35.8173 H              1 <1>                0.0000
     19 H19         30.6479  36.0338  35.8981 H              1 <1>                0.0000
     20 H20         31.8255  37.0012  37.8537 H              1 <1>                0.0000
     21 H21         32.9532  37.8399  36.7600 H              1 <1>                0.0000
     22 H22         31.1674  39.3844  37.4600 H              1 <1>                0.0000
     23 H23         30.3065  39.9805  35.1858 H              1 <1>                0.0000
     24 H24         32.0489  39.6134  35.1720 H              1 <1>                0.0000
     25 H25         29.8133  37.6709  34.4323 H              1 <1>                0.0000
     26 H26         30.8891  38.5002  33.2829 H              1 <1>                0.0000
     27 H27         29.8380  35.4174  39.1541 H              1 <1>                0.0000
     28 H28         28.7055  34.2192  39.8249 H              1 <1>                0.0000
     29 H29         28.6775  34.5937  38.0850 H              1 <1>                0.0000
     30 H30         27.2954  37.4863  40.9183 H              1 <1>                0.0000
     31 H31         27.8984  35.9084  41.4795 H              1 <1>                0.0000
     32 H32         29.0310  37.1066  40.8087 H              1 <1>                0.0000
     33 H33         26.2414  35.1267  38.2389 H              1 <1>                0.0000
     34 H34         26.2694  34.7523  39.9788 H              1 <1>                0.0000
     35 H35         25.6664  36.3301  39.4176 H              1 <1>                0.0000
     36 H36         32.7362  37.4238  34.3771 H              1 <1>                0.0000
     37 H37         31.6827  36.3249  33.7498 H              1 <1>                0.0000
     38 H38         28.9347  38.1327  36.2190 H              1 <1>                0.0000
@<TRIPOS>BOND
    1    1    2 1     
    2    1   16 1     
    3    1   17 1     
    4    1   18 1     
    5    2    3 1     
    6    2    7 1     
    7    2   19 1     
    8    3    4 1     
    9    3   20 1     
   10    3   21 1     
   11    4    5 1     
   12    4    8 1     
   13    4   22 1     
   14    5    6 1     
   15    5   23 1     
   16    5   24 1     
   17    6    7 1     
   18    6   25 1     
   19    6   26 1     
   20    7   36 1     
   21    7   37 1     
   22    8    9 am    
   23    8   38 1     
   24    9   10 2     
   25    9   11 1     
   26   11   12 1     
   27   12   13 1     
   28   12   14 1     
   29   12   15 1     
   30   13   27 1     
   31   13   28 1     
   32   13   29 1     
   33   14   30 1     
   34   14   31 1     
   35   14   32 1     
   36   15   33 1     
   37   15   34 1     
   38   15   35 1     
@<TRIPOS>SUBSTRUCTURE
      1 ****           1
@<TRIPOS>SET
DONOR_HYDROGENS      STATIC     ATOMS    <user>   **** ""
3 36 37 38
ATOM$RED        STATIC     ATOMS    COLORGROUP SYSTEM
3 36 37 38
@<TRIPOS>COMMENT
> <Gold.Version>
2022.2.0

> <Gold.Id.Protein>
1qkm|1qkm_protein|mol2

> <Gold.Protein.RotatedTorsions>
[  496  491  490  487 ] final   50.33 input  -89.99 | X-H torsion

> <Gold.Protein.ActiveResidues>
 MET295  LEU298  THR299  LEU301  ALA302  GLU305  TRP335  MET336  LEU339  MET340 
 GLY342  LEU343  ARG346  PHE356  ILE373  ILE376  PHE377  LEU380  LYS471  GLY472 
 MET473  HIS475  LEU476  LEU477  ASN478  MET479  VAL484  VAL487 

> <Gold.Protein.RotatedAtoms>
   36.4753   33.4498   42.3522 H   0  0  0  0  0  0  0  0  0  0  0  0  # atno 496  bound_to 491 

> <Gold.Score>
     Score     S(PLP)   S(hbond)     S(cho)   S(metal)  DE(clash)   DE(tors)     intcor
     38.21     -36.38       0.78       0.00       0.00       0.00       0.48       0.44

> <Gold.PLP.Fitness>
38.2076

> <Gold.PLP.PLP>
-36.3816

> <Gold.PLP.part.hbond>
-0.7656

> <Gold.PLP.part.metal>
0.0000

> <Gold.PLP.part.buried>
-4.3780

> <Gold.PLP.part.nonpolar>
-32.4306

> <Gold.PLP.part.repulsive>
0.0672

> <Gold.PLP.ligand.clash>
0.0000

> <Gold.PLP.ligand.torsion>
0.4788

> <Gold.PLP.Chemscore.Hbond>
0.7800

> <Gold.PLP.Chemscore.CHOScore>
0.0000

> <Gold.PLP.Chemscore.Metal>
0.0000

> <Gold.Chemscore.Hbonds>
donor molecule, donor type, donor heavy atom, donor atom, acceptor molecule, acceptor atom, score
      L1  H     7    37       P1  3187  0.78

> <Gold.PLP.Chemscore.Internal.Correction>
0.4436

