#       Name:                EN300-92976_i004
#       Creating user name   aseyller
#       Creation time:       Sat Apr 22 06:40:08 2023


#       File generated by GOLD software.
#

@<TRIPOS>MOLECULE
EN300-92976_i004|amine_3|mol2|3775|dock3
    38    38     1
SMALL
USER_CHARGES


@<TRIPOS>ATOM
      1 C1          28.4960  36.0456  42.1433 C.3            1 <1>                0.0000
      2 C2          27.9222  36.5623  40.8225 C.3            1 <1>                0.0000
      3 C3          27.9911  35.4546  39.7691 C.3            1 <1>                0.0000
      4 C4          27.4161  35.9765  38.4492 C.3            1 <1>                0.0000
      5 C5          25.9839  36.4647  38.6852 C.3            1 <1>                0.0000
      6 C6          25.9893  37.5350  39.7788 C.3            1 <1>                0.0000
      7 N7          26.5254  36.9670  41.0217 N.4            1 <1>                1.0000
      8 N8          28.2380  37.0868  37.9617 N.am           1 <1>                0.0000
      9 C9          29.5504  36.8982  37.7199 C.2            1 <1>                0.0000
     10 O10         30.0519  35.8072  37.9062 O.2            1 <1>                0.0000
     11 O11         30.3059  37.9187  37.2718 O.3            1 <1>                0.0000
     12 C12         31.5091  37.5744  36.5355 C.3            1 <1>                0.0000
     13 C13         32.5267  36.9432  37.4879 C.3            1 <1>                0.0000
     14 C14         31.1615  36.5784  35.4274 C.3            1 <1>                0.0000
     15 C15         32.1070  38.8389  35.9155 C.3            1 <1>                0.0000
     16 H16         29.5342  35.7475  41.9966 H              1 <1>                0.0000
     17 H17         28.4472  36.8344  42.8940 H              1 <1>                0.0000
     18 H18         27.9156  35.1868  42.4804 H              1 <1>                0.0000
     19 H19         28.5036  37.4205  40.4853 H              1 <1>                0.0000
     20 H20         29.0292  35.1568  39.6215 H              1 <1>                0.0000
     21 H21         27.4097  34.5960  40.1052 H              1 <1>                0.0000
     22 H22         27.4107  35.1741  37.7114 H              1 <1>                0.0000
     23 H23         25.5873  36.8888  37.7628 H              1 <1>                0.0000
     24 H24         25.3609  35.6270  38.9988 H              1 <1>                0.0000
     25 H25         26.6125  38.3721  39.4640 H              1 <1>                0.0000
     26 H26         24.9713  37.8848  39.9493 H              1 <1>                0.0000
     27 H27         32.1008  36.0424  37.9297 H              1 <1>                0.0000
     28 H28         33.4300  36.6848  36.9353 H              1 <1>                0.0000
     29 H29         32.7744  37.6529  38.2774 H              1 <1>                0.0000
     30 H30         30.4366  37.0280  34.7490 H              1 <1>                0.0000
     31 H31         32.0647  36.3199  34.8748 H              1 <1>                0.0000
     32 H32         30.7356  35.6775  35.8692 H              1 <1>                0.0000
     33 H33         32.3546  39.5486  36.7049 H              1 <1>                0.0000
     34 H34         33.0102  38.5805  35.3628 H              1 <1>                0.0000
     35 H35         31.3820  39.2887  35.2371 H              1 <1>                0.0000
     36 H36         25.9775  36.1621  41.2861 H              1 <1>                0.0000
     37 H37         26.4779  37.6591  41.7543 H              1 <1>                0.0000
     38 H38         27.8378  37.9578  37.8130 H              1 <1>                0.0000
@<TRIPOS>BOND
    1    1    2 1     
    2    1   16 1     
    3    1   17 1     
    4    1   18 1     
    5    2    3 1     
    6    2    7 1     
    7    2   19 1     
    8    3    4 1     
    9    3   20 1     
   10    3   21 1     
   11    4    5 1     
   12    4    8 1     
   13    4   22 1     
   14    5    6 1     
   15    5   23 1     
   16    5   24 1     
   17    6    7 1     
   18    6   25 1     
   19    6   26 1     
   20    7   36 1     
   21    7   37 1     
   22    8    9 am    
   23    8   38 1     
   24    9   10 2     
   25    9   11 1     
   26   11   12 1     
   27   12   13 1     
   28   12   14 1     
   29   12   15 1     
   30   13   27 1     
   31   13   28 1     
   32   13   29 1     
   33   14   30 1     
   34   14   31 1     
   35   14   32 1     
   36   15   33 1     
   37   15   34 1     
   38   15   35 1     
@<TRIPOS>SUBSTRUCTURE
      1 ****           1
@<TRIPOS>SET
DONOR_HYDROGENS      STATIC     ATOMS    <user>   **** ""
3 36 37 38
ATOM$RED        STATIC     ATOMS    COLORGROUP SYSTEM
3 36 37 38
@<TRIPOS>COMMENT
> <Gold.Version>
2022.2.0

> <Gold.Id.Protein>
1qkm|1qkm_protein|mol2

> <Gold.Protein.RotatedTorsions>
[  496  491  490  487 ] final  -48.10 input  -89.99 | X-H torsion

> <Gold.Protein.ActiveResidues>
 MET295  LEU298  THR299  LEU301  ALA302  GLU305  TRP335  MET336  LEU339  MET340 
 GLY342  LEU343  ARG346  PHE356  ILE373  ILE376  PHE377  LEU380  LYS471  GLY472 
 MET473  HIS475  LEU476  LEU477  ASN478  MET479  VAL484  VAL487 

> <Gold.Protein.RotatedAtoms>
   36.4120   34.6958   41.6571 H   0  0  0  0  0  0  0  0  0  0  0  0  # atno 496  bound_to 491 

> <Gold.Score>
     Score     S(PLP)   S(hbond)     S(cho)   S(metal)  DE(clash)   DE(tors)     intcor
     39.02     -39.40       0.00       0.00       0.00       0.00       0.41       0.44

> <Gold.PLP.Fitness>
39.0233

> <Gold.PLP.PLP>
-39.3972

> <Gold.PLP.part.hbond>
0.0000

> <Gold.PLP.part.metal>
0.0000

> <Gold.PLP.part.buried>
-3.9169

> <Gold.PLP.part.nonpolar>
-36.1515

> <Gold.PLP.part.repulsive>
0.0639

> <Gold.PLP.ligand.clash>
0.0000

> <Gold.PLP.ligand.torsion>
0.4087

> <Gold.PLP.Chemscore.Hbond>
0.0000

> <Gold.PLP.Chemscore.CHOScore>
0.0000

> <Gold.PLP.Chemscore.Metal>
0.0000

> <Gold.PLP.Chemscore.Internal.Correction>
0.4436

