#       Name:                EN300-92976_i004
#       Creating user name   aseyller
#       Creation time:       Sat Apr 22 06:40:12 2023


#       File generated by GOLD software.
#

@<TRIPOS>MOLECULE
EN300-92976_i004|amine_3|mol2|3775|dock9
    38    38     1
SMALL
USER_CHARGES


@<TRIPOS>ATOM
      1 C1          28.8698  36.9720  42.3751 C.3            1 <1>                0.0000
      2 C2          28.4671  36.8204  40.9069 C.3            1 <1>                0.0000
      3 C3          28.9181  35.4512  40.3936 C.3            1 <1>                0.0000
      4 C4          28.5131  35.3044  38.9240 C.3            1 <1>                0.0000
      5 C5          26.9995  35.5011  38.7997 C.3            1 <1>                0.0000
      6 C6          26.6196  36.8684  39.3720 C.3            1 <1>                0.0000
      7 N7          27.0089  36.9365  40.7856 N.4            1 <1>                1.0000
      8 N8          29.2061  36.3154  38.1216 N.am           1 <1>                0.0000
      9 C9          30.5043  36.1475  37.8009 C.2            1 <1>                0.0000
     10 O10         31.1001  35.1577  38.1774 O.2            1 <1>                0.0000
     11 O11         31.1412  37.0767  37.0633 O.3            1 <1>                0.0000
     12 C12         32.4119  36.6935  36.4744 C.3            1 <1>                0.0000
     13 C13         32.2349  35.3998  35.6769 C.3            1 <1>                0.0000
     14 C14         32.8978  37.8050  35.5421 C.3            1 <1>                0.0000
     15 C15         33.4419  36.4718  37.5838 C.3            1 <1>                0.0000
     16 H16         29.9529  36.8886  42.4652 H              1 <1>                0.0000
     17 H17         28.5487  37.9472  42.7411 H              1 <1>                0.0000
     18 H18         28.3947  36.1882  42.9649 H              1 <1>                0.0000
     19 H19         28.9432  37.6039  40.3173 H              1 <1>                0.0000
     20 H20         30.0012  35.3679  40.4828 H              1 <1>                0.0000
     21 H21         28.4422  34.6670  40.9824 H              1 <1>                0.0000
     22 H22         28.7818  34.3092  38.5696 H              1 <1>                0.0000
     23 H23         26.7113  35.4532  37.7496 H              1 <1>                0.0000
     24 H24         26.4839  34.7178  39.3553 H              1 <1>                0.0000
     25 H25         27.1356  37.6508  38.8154 H              1 <1>                0.0000
     26 H26         25.5426  37.0117  39.2849 H              1 <1>                0.0000
     27 H27         31.5011  35.5577  34.8866 H              1 <1>                0.0000
     28 H28         33.1888  35.1121  35.2348 H              1 <1>                0.0000
     29 H29         31.8889  34.6079  36.3412 H              1 <1>                0.0000
     30 H30         33.0238  38.7266  36.1103 H              1 <1>                0.0000
     31 H31         33.8516  37.5174  35.1000 H              1 <1>                0.0000
     32 H32         32.1639  37.9630  34.7517 H              1 <1>                0.0000
     33 H33         33.0958  35.6799  38.2481 H              1 <1>                0.0000
     34 H34         34.3958  36.1842  37.1418 H              1 <1>                0.0000
     35 H35         33.5680  37.3934  38.1521 H              1 <1>                0.0000
     36 H36         26.5693  36.1820  41.2912 H              1 <1>                0.0000
     37 H37         26.7092  37.8183  41.1738 H              1 <1>                0.0000
     38 H38         28.7305  37.1056  37.8210 H              1 <1>                0.0000
@<TRIPOS>BOND
    1    1    2 1     
    2    1   16 1     
    3    1   17 1     
    4    1   18 1     
    5    2    3 1     
    6    2    7 1     
    7    2   19 1     
    8    3    4 1     
    9    3   20 1     
   10    3   21 1     
   11    4    5 1     
   12    4    8 1     
   13    4   22 1     
   14    5    6 1     
   15    5   23 1     
   16    5   24 1     
   17    6    7 1     
   18    6   25 1     
   19    6   26 1     
   20    7   36 1     
   21    7   37 1     
   22    8    9 am    
   23    8   38 1     
   24    9   10 2     
   25    9   11 1     
   26   11   12 1     
   27   12   13 1     
   28   12   14 1     
   29   12   15 1     
   30   13   27 1     
   31   13   28 1     
   32   13   29 1     
   33   14   30 1     
   34   14   31 1     
   35   14   32 1     
   36   15   33 1     
   37   15   34 1     
   38   15   35 1     
@<TRIPOS>SUBSTRUCTURE
      1 ****           1
@<TRIPOS>SET
DONOR_HYDROGENS      STATIC     ATOMS    <user>   **** ""
3 36 37 38
ATOM$RED        STATIC     ATOMS    COLORGROUP SYSTEM
3 36 37 38
@<TRIPOS>COMMENT
> <Gold.Version>
2022.2.0

> <Gold.Id.Protein>
1qkm|1qkm_protein|mol2

> <Gold.Protein.RotatedTorsions>
[  496  491  490  487 ] final  -62.65 input  -89.99 | X-H torsion

> <Gold.Protein.ActiveResidues>
 MET295  LEU298  THR299  LEU301  ALA302  GLU305  TRP335  MET336  LEU339  MET340 
 GLY342  LEU343  ARG346  PHE356  ILE373  ILE376  PHE377  LEU380  LYS471  GLY472 
 MET473  HIS475  LEU476  LEU477  ASN478  MET479  VAL484  VAL487 

> <Gold.Protein.RotatedAtoms>
   36.5178   34.7349   41.4465 H   0  0  0  0  0  0  0  0  0  0  0  0  # atno 496  bound_to 491 

> <Gold.Score>
     Score     S(PLP)   S(hbond)     S(cho)   S(metal)  DE(clash)   DE(tors)     intcor
     37.82     -38.29       0.00       0.00       0.00       0.00       0.45       0.43

> <Gold.PLP.Fitness>
37.8207

> <Gold.PLP.PLP>
-38.2854

> <Gold.PLP.part.hbond>
0.0000

> <Gold.PLP.part.metal>
0.0000

> <Gold.PLP.part.buried>
-4.0417

> <Gold.PLP.part.nonpolar>
-34.7906

> <Gold.PLP.part.repulsive>
0.0697

> <Gold.PLP.ligand.clash>
0.0000

> <Gold.PLP.ligand.torsion>
0.4465

> <Gold.PLP.Chemscore.Hbond>
0.0000

> <Gold.PLP.Chemscore.CHOScore>
0.0000

> <Gold.PLP.Chemscore.Metal>
0.0000

> <Gold.PLP.Chemscore.Internal.Correction>
0.4282

