#       Name:                EN300-92976_i004
#       Creating user name   aseyller
#       Creation time:       Sat Apr 22 06:40:07 2023


#       File generated by GOLD software.
#

@<TRIPOS>MOLECULE
EN300-92976_i004|amine_3|mol2|3775|dock1
    38    38     1
SMALL
USER_CHARGES


@<TRIPOS>ATOM
      1 C1          28.7807  36.1159  42.0988 C.3            1 <1>                0.0000
      2 C2          28.0218  36.6664  40.8897 C.3            1 <1>                0.0000
      3 C3          28.2858  35.7755  39.6738 C.3            1 <1>                0.0000
      4 C4          27.5246  36.3306  38.4664 C.3            1 <1>                0.0000
      5 C5          26.0348  36.4170  38.8102 C.3            1 <1>                0.0000
      6 C6          25.8543  37.2840  40.0580 C.3            1 <1>                0.0000
      7 N7          26.5838  36.6867  41.1830 N.4            1 <1>                1.0000
      8 N8          28.0304  37.6663  38.1403 N.am           1 <1>                0.0000
      9 C9          29.2350  37.8057  37.5521 C.2            1 <1>                0.0000
     10 O10         29.9017  36.8235  37.2925 O.2            1 <1>                0.0000
     11 O11         29.6998  39.0333  37.2524 O.3            1 <1>                0.0000
     12 C12         30.5806  39.1422  36.1031 C.3            1 <1>                0.0000
     13 C13         30.0020  38.3354  34.9390 C.3            1 <1>                0.0000
     14 C14         30.7053  40.6110  35.6935 C.3            1 <1>                0.0000
     15 C15         31.9624  38.5948  36.4659 C.3            1 <1>                0.0000
     16 H16         29.8489  36.1032  41.8824 H              1 <1>                0.0000
     17 H17         28.5929  36.7502  42.9651 H              1 <1>                0.0000
     18 H18         28.4407  35.1021  42.3102 H              1 <1>                0.0000
     19 H19         28.3629  37.6798  40.6779 H              1 <1>                0.0000
     20 H20         29.3538  35.7633  39.4566 H              1 <1>                0.0000
     21 H21         27.9448  34.7619  39.8844 H              1 <1>                0.0000
     22 H22         27.6638  35.6683  37.6119 H              1 <1>                0.0000
     23 H23         25.4940  36.8631  37.9756 H              1 <1>                0.0000
     24 H24         25.6472  35.4166  39.0028 H              1 <1>                0.0000
     25 H25         26.2421  38.2841  39.8641 H              1 <1>                0.0000
     26 H26         24.7947  37.3477  40.3055 H              1 <1>                0.0000
     27 H27         29.0175  38.7253  34.6805 H              1 <1>                0.0000
     28 H28         30.6632  38.4171  34.0762 H              1 <1>                0.0000
     29 H29         29.9132  37.2889  35.2308 H              1 <1>                0.0000
     30 H30         31.1174  41.1857  36.5229 H              1 <1>                0.0000
     31 H31         31.3663  40.6928  34.8308 H              1 <1>                0.0000
     32 H32         29.7207  41.0010  35.4350 H              1 <1>                0.0000
     33 H33         31.8737  37.5484  36.7578 H              1 <1>                0.0000
     34 H34         32.6236  38.6765  35.6033 H              1 <1>                0.0000
     35 H35         32.3746  39.1695  37.2954 H              1 <1>                0.0000
     36 H36         26.2583  35.7431  41.3305 H              1 <1>                0.0000
     37 H37         26.4191  37.2312  42.0163 H              1 <1>                0.0000
     38 H38         27.4982  38.4503  38.3475 H              1 <1>                0.0000
@<TRIPOS>BOND
    1    1    2 1     
    2    1   16 1     
    3    1   17 1     
    4    1   18 1     
    5    2    3 1     
    6    2    7 1     
    7    2   19 1     
    8    3    4 1     
    9    3   20 1     
   10    3   21 1     
   11    4    5 1     
   12    4    8 1     
   13    4   22 1     
   14    5    6 1     
   15    5   23 1     
   16    5   24 1     
   17    6    7 1     
   18    6   25 1     
   19    6   26 1     
   20    7   36 1     
   21    7   37 1     
   22    8    9 am    
   23    8   38 1     
   24    9   10 2     
   25    9   11 1     
   26   11   12 1     
   27   12   13 1     
   28   12   14 1     
   29   12   15 1     
   30   13   27 1     
   31   13   28 1     
   32   13   29 1     
   33   14   30 1     
   34   14   31 1     
   35   14   32 1     
   36   15   33 1     
   37   15   34 1     
   38   15   35 1     
@<TRIPOS>SUBSTRUCTURE
      1 ****           1
@<TRIPOS>SET
DONOR_HYDROGENS      STATIC     ATOMS    <user>   **** ""
3 36 37 38
ATOM$RED        STATIC     ATOMS    COLORGROUP SYSTEM
3 36 37 38
@<TRIPOS>COMMENT
> <Gold.Version>
2022.2.0

> <Gold.Id.Protein>
1qkm|1qkm_protein|mol2

> <Gold.Protein.RotatedTorsions>
[  496  491  490  487 ] final -103.52 input  -89.99 | X-H torsion

> <Gold.Protein.ActiveResidues>
 MET295  LEU298  THR299  LEU301  ALA302  GLU305  TRP335  MET336  LEU339  MET340 
 GLY342  LEU343  ARG346  PHE356  ILE373  ILE376  PHE377  LEU380  LYS471  GLY472 
 MET473  HIS475  LEU476  LEU477  ASN478  MET479  VAL484  VAL487 

> <Gold.Protein.RotatedAtoms>
   36.8819   34.5428   40.9323 H   0  0  0  0  0  0  0  0  0  0  0  0  # atno 496  bound_to 491 

> <Gold.Score>
     Score     S(PLP)   S(hbond)     S(cho)   S(metal)  DE(clash)   DE(tors)     intcor
     43.29     -44.19       0.00       0.00       0.00       0.00       0.70       0.49

> <Gold.PLP.Fitness>
43.2944

> <Gold.PLP.PLP>
-44.1937

> <Gold.PLP.part.hbond>
0.0000

> <Gold.PLP.part.metal>
0.0000

> <Gold.PLP.part.buried>
-3.5687

> <Gold.PLP.part.nonpolar>
-40.5935

> <Gold.PLP.part.repulsive>
0.0430

> <Gold.PLP.ligand.clash>
0.0000

> <Gold.PLP.ligand.torsion>
0.6960

> <Gold.PLP.Chemscore.Hbond>
0.0000

> <Gold.PLP.Chemscore.CHOScore>
0.0000

> <Gold.PLP.Chemscore.Metal>
0.0000

> <Gold.PLP.Chemscore.Internal.Correction>
0.4927

