#       Name:                EN300-92976_i004
#       Creating user name   aseyller
#       Creation time:       Sat Apr 22 06:40:16 2023


#       File generated by GOLD software.
#

@<TRIPOS>MOLECULE
EN300-92976_i004|amine_3|mol2|3775|dock15
    38    38     1
SMALL
USER_CHARGES


@<TRIPOS>ATOM
      1 C1          26.3680  37.0350  42.5337 C.3            1 <1>                0.0000
      2 C2          26.7116  37.0011  41.0432 C.3            1 <1>                0.0000
      3 C3          27.7836  35.9385  40.7917 C.3            1 <1>                0.0000
      4 C4          28.1244  35.9084  39.2989 C.3            1 <1>                0.0000
      5 C5          26.8457  35.6438  38.4987 C.3            1 <1>                0.0000
      6 C6          25.8085  36.7173  38.8352 C.3            1 <1>                0.0000
      7 N7          25.5060  36.6775  40.2710 N.4            1 <1>                1.0000
      8 N8          28.6936  37.1981  38.9004 N.am           1 <1>                0.0000
      9 C9          29.7003  37.2426  38.0053 C.2            1 <1>                0.0000
     10 O10         30.1358  36.2130  37.5290 O.2            1 <1>                0.0000
     11 O11         30.2235  38.4279  37.6389 O.3            1 <1>                0.0000
     12 C12         31.0702  38.4384  36.4594 C.3            1 <1>                0.0000
     13 C13         32.3476  37.6448  36.7416 C.3            1 <1>                0.0000
     14 C14         30.3212  37.7996  35.2882 C.3            1 <1>                0.0000
     15 C15         31.4342  39.8817  36.1057 C.3            1 <1>                0.0000
     16 H16         27.2625  37.2780  43.1074 H              1 <1>                0.0000
     17 H17         25.6044  37.7919  42.7134 H              1 <1>                0.0000
     18 H18         25.9924  36.0595  42.8423 H              1 <1>                0.0000
     19 H19         27.0883  37.9765  40.7353 H              1 <1>                0.0000
     20 H20         28.6785  36.1816  41.3645 H              1 <1>                0.0000
     21 H21         27.4079  34.9625  41.0989 H              1 <1>                0.0000
     22 H22         28.8462  35.1148  39.1058 H              1 <1>                0.0000
     23 H23         27.0703  35.6762  37.4327 H              1 <1>                0.0000
     24 H24         26.4506  34.6617  38.7584 H              1 <1>                0.0000
     25 H25         26.2047  37.6988  38.5749 H              1 <1>                0.0000
     26 H26         24.8970  36.5319  38.2671 H              1 <1>                0.0000
     27 H27         32.0883  36.6165  36.9936 H              1 <1>                0.0000
     28 H28         32.9833  37.6527  35.8561 H              1 <1>                0.0000
     29 H29         32.8813  38.0999  37.5760 H              1 <1>                0.0000
     30 H30         29.4112  38.3649  35.0873 H              1 <1>                0.0000
     31 H31         30.9568  37.8074  34.4028 H              1 <1>                0.0000
     32 H32         30.0619  36.7713  35.5402 H              1 <1>                0.0000
     33 H33         31.9678  40.3369  36.9401 H              1 <1>                0.0000
     34 H34         32.0698  39.8896  35.2203 H              1 <1>                0.0000
     35 H35         30.5242  40.4471  35.9048 H              1 <1>                0.0000
     36 H36         25.1857  35.7538  40.5207 H              1 <1>                0.0000
     37 H37         24.7833  37.3498  40.4802 H              1 <1>                0.0000
     38 H38         28.3460  38.0200  39.2806 H              1 <1>                0.0000
@<TRIPOS>BOND
    1    1    2 1     
    2    1   16 1     
    3    1   17 1     
    4    1   18 1     
    5    2    3 1     
    6    2    7 1     
    7    2   19 1     
    8    3    4 1     
    9    3   20 1     
   10    3   21 1     
   11    4    5 1     
   12    4    8 1     
   13    4   22 1     
   14    5    6 1     
   15    5   23 1     
   16    5   24 1     
   17    6    7 1     
   18    6   25 1     
   19    6   26 1     
   20    7   36 1     
   21    7   37 1     
   22    8    9 am    
   23    8   38 1     
   24    9   10 2     
   25    9   11 1     
   26   11   12 1     
   27   12   13 1     
   28   12   14 1     
   29   12   15 1     
   30   13   27 1     
   31   13   28 1     
   32   13   29 1     
   33   14   30 1     
   34   14   31 1     
   35   14   32 1     
   36   15   33 1     
   37   15   34 1     
   38   15   35 1     
@<TRIPOS>SUBSTRUCTURE
      1 ****           1
@<TRIPOS>SET
DONOR_HYDROGENS      STATIC     ATOMS    <user>   **** ""
3 36 37 38
ATOM$RED        STATIC     ATOMS    COLORGROUP SYSTEM
3 36 37 38
@<TRIPOS>COMMENT
> <Gold.Version>
2022.2.0

> <Gold.Id.Protein>
1qkm|1qkm_protein|mol2

> <Gold.Protein.RotatedTorsions>
[  496  491  490  487 ] final -120.68 input  -89.99 | X-H torsion

> <Gold.Protein.ActiveResidues>
 MET295  LEU298  THR299  LEU301  ALA302  GLU305  TRP335  MET336  LEU339  MET340 
 GLY342  LEU343  ARG346  PHE356  ILE373  ILE376  PHE377  LEU380  LYS471  GLY472 
 MET473  HIS475  LEU476  LEU477  ASN478  MET479  VAL484  VAL487 

> <Gold.Protein.RotatedAtoms>
   37.0316   34.3474   40.7962 H   0  0  0  0  0  0  0  0  0  0  0  0  # atno 496  bound_to 491 

> <Gold.Score>
     Score     S(PLP)   S(hbond)     S(cho)   S(metal)  DE(clash)   DE(tors)     intcor
     35.35     -35.97       0.00       0.00       0.00       0.00       0.52       0.41

> <Gold.PLP.Fitness>
35.3452

> <Gold.PLP.PLP>
-35.9677

> <Gold.PLP.part.hbond>
-0.7444

> <Gold.PLP.part.metal>
0.0000

> <Gold.PLP.part.buried>
-0.6936

> <Gold.PLP.part.nonpolar>
-35.0184

> <Gold.PLP.part.repulsive>
0.1078

> <Gold.PLP.ligand.clash>
0.0033

> <Gold.PLP.ligand.torsion>
0.5161

> <Gold.PLP.Chemscore.Hbond>
0.0000

> <Gold.PLP.Chemscore.CHOScore>
0.0000

> <Gold.PLP.Chemscore.Metal>
0.0000

> <Gold.PLP.Chemscore.Internal.Correction>
0.4130

