#       Name:                EN300-92976_i004
#       Creating user name   aseyller
#       Creation time:       Sat Apr 22 06:40:17 2023


#       File generated by GOLD software.
#

@<TRIPOS>MOLECULE
EN300-92976_i004|amine_3|mol2|3775|dock17
    38    38     1
SMALL
USER_CHARGES


@<TRIPOS>ATOM
      1 C1          34.1406  36.2296  35.1948 C.3            1 <1>                0.0000
      2 C2          32.7279  36.8144  35.2523 C.3            1 <1>                0.0000
      3 C3          32.6165  37.7603  36.4499 C.3            1 <1>                0.0000
      4 C4          31.2011  38.3427  36.5034 C.3            1 <1>                0.0000
      5 C5          30.8990  39.0469  35.1775 C.3            1 <1>                0.0000
      6 C6          31.0741  38.0533  34.0270 C.3            1 <1>                0.0000
      7 N7          32.4539  37.5528  34.0137 N.4            1 <1>                1.0000
      8 N8          30.2346  37.2625  36.7157 N.am           1 <1>                0.0000
      9 C9          29.4195  37.2887  37.7888 C.2            1 <1>                0.0000
     10 O10         29.4865  38.2083  38.5802 O.2            1 <1>                0.0000
     11 O11         28.5312  36.2959  37.9839 O.3            1 <1>                0.0000
     12 C12         27.4213  36.5709  38.8788 C.3            1 <1>                0.0000
     13 C13         27.9417  36.7002  40.3118 C.3            1 <1>                0.0000
     14 C14         26.7424  37.8773  38.4629 C.3            1 <1>                0.0000
     15 C15         26.4105  35.4248  38.8048 C.3            1 <1>                0.0000
     16 H16         34.3435  35.6788  36.1133 H              1 <1>                0.0000
     17 H17         34.2204  35.5557  34.3418 H              1 <1>                0.0000
     18 H18         34.8642  37.0377  35.0884 H              1 <1>                0.0000
     19 H19         32.0047  36.0059  35.3598 H              1 <1>                0.0000
     20 H20         32.8185  37.2096  37.3686 H              1 <1>                0.0000
     21 H21         33.3391  38.5693  36.3432 H              1 <1>                0.0000
     22 H22         31.1329  39.0602  37.3211 H              1 <1>                0.0000
     23 H23         29.8735  39.4159  35.1868 H              1 <1>                0.0000
     24 H24         31.5860  39.8826  35.0445 H              1 <1>                0.0000
     25 H25         30.3865  37.2182  34.1610 H              1 <1>                0.0000
     26 H26         30.8596  38.5514  33.0816 H              1 <1>                0.0000
     27 H27         28.6618  37.5166  40.3646 H              1 <1>                0.0000
     28 H28         27.1085  36.9066  40.9837 H              1 <1>                0.0000
     29 H29         28.4253  35.7693  40.6082 H              1 <1>                0.0000
     30 H30         26.3718  37.7852  37.4421 H              1 <1>                0.0000
     31 H31         25.9093  38.0838  39.1347 H              1 <1>                0.0000
     32 H32         27.4626  38.6939  38.5156 H              1 <1>                0.0000
     33 H33         26.8941  34.4939  39.1011 H              1 <1>                0.0000
     34 H34         25.5773  35.6311  39.4766 H              1 <1>                0.0000
     35 H35         26.0398  35.3325  37.7839 H              1 <1>                0.0000
     36 H36         33.0921  38.3308  33.9390 H              1 <1>                0.0000
     37 H37         32.5805  36.9395  33.2226 H              1 <1>                0.0000
     38 H38         30.1812  36.5283  36.0840 H              1 <1>                0.0000
@<TRIPOS>BOND
    1    1    2 1     
    2    1   16 1     
    3    1   17 1     
    4    1   18 1     
    5    2    3 1     
    6    2    7 1     
    7    2   19 1     
    8    3    4 1     
    9    3   20 1     
   10    3   21 1     
   11    4    5 1     
   12    4    8 1     
   13    4   22 1     
   14    5    6 1     
   15    5   23 1     
   16    5   24 1     
   17    6    7 1     
   18    6   25 1     
   19    6   26 1     
   20    7   36 1     
   21    7   37 1     
   22    8    9 am    
   23    8   38 1     
   24    9   10 2     
   25    9   11 1     
   26   11   12 1     
   27   12   13 1     
   28   12   14 1     
   29   12   15 1     
   30   13   27 1     
   31   13   28 1     
   32   13   29 1     
   33   14   30 1     
   34   14   31 1     
   35   14   32 1     
   36   15   33 1     
   37   15   34 1     
   38   15   35 1     
@<TRIPOS>SUBSTRUCTURE
      1 ****           1
@<TRIPOS>SET
DONOR_HYDROGENS      STATIC     ATOMS    <user>   **** ""
3 36 37 38
ATOM$RED        STATIC     ATOMS    COLORGROUP SYSTEM
3 36 37 38
@<TRIPOS>COMMENT
> <Gold.Version>
2022.2.0

> <Gold.Id.Protein>
1qkm|1qkm_protein|mol2

> <Gold.Protein.RotatedTorsions>
[  496  491  490  487 ] final   27.85 input  -89.99 | X-H torsion

> <Gold.Protein.ActiveResidues>
 MET295  LEU298  THR299  LEU301  ALA302  GLU305  TRP335  MET336  LEU339  MET340 
 GLY342  LEU343  ARG346  PHE356  ILE373  ILE376  PHE377  LEU380  LYS471  GLY472 
 MET473  HIS475  LEU476  LEU477  ASN478  MET479  VAL484  VAL487 

> <Gold.Protein.RotatedAtoms>
   36.3357   33.7890   42.3775 H   0  0  0  0  0  0  0  0  0  0  0  0  # atno 496  bound_to 491 

> <Gold.Score>
     Score     S(PLP)   S(hbond)     S(cho)   S(metal)  DE(clash)   DE(tors)     intcor
     35.86     -34.88       0.41       0.00       0.00       0.00       0.33       0.41

> <Gold.PLP.Fitness>
35.8604

> <Gold.PLP.PLP>
-34.8788

> <Gold.PLP.part.hbond>
-0.4841

> <Gold.PLP.part.metal>
0.0000

> <Gold.PLP.part.buried>
-2.1401

> <Gold.PLP.part.nonpolar>
-33.2203

> <Gold.PLP.part.repulsive>
0.0458

> <Gold.PLP.ligand.clash>
0.0000

> <Gold.PLP.ligand.torsion>
0.3251

> <Gold.PLP.Chemscore.Hbond>
0.4062

> <Gold.PLP.Chemscore.CHOScore>
0.0000

> <Gold.PLP.Chemscore.Metal>
0.0000

> <Gold.Chemscore.Hbonds>
donor molecule, donor type, donor heavy atom, donor atom, acceptor molecule, acceptor atom, score
      L1  H     7    37       P1  3187  0.41

> <Gold.PLP.Chemscore.Internal.Correction>
0.4130

