#       Name:                EN300-92976_i004
#       Creating user name   aseyller
#       Creation time:       Sat Apr 22 06:40:08 2023


#       File generated by GOLD software.
#

@<TRIPOS>MOLECULE
EN300-92976_i004|amine_3|mol2|3775|dock2
    38    38     1
SMALL
USER_CHARGES


@<TRIPOS>ATOM
      1 C1          25.8183  37.3019  41.8018 C.3            1 <1>                0.0000
      2 C2          26.7875  36.9221  40.6806 C.3            1 <1>                0.0000
      3 C3          28.1380  36.5317  41.2852 C.3            1 <1>                0.0000
      4 C4          29.1046  36.1527  40.1594 C.3            1 <1>                0.0000
      5 C5          28.4900  35.0203  39.3317 C.3            1 <1>                0.0000
      6 C6          27.1266  35.4667  38.7995 C.3            1 <1>                0.0000
      7 N7          26.2402  35.7896  39.9241 N.4            1 <1>                1.0000
      8 N8          29.3369  37.3167  39.3007 N.am           1 <1>                0.0000
      9 C9          30.0917  37.1953  38.1907 C.2            1 <1>                0.0000
     10 O10         30.5796  36.1205  37.9023 O.2            1 <1>                0.0000
     11 O11         30.3052  38.2651  37.4015 O.3            1 <1>                0.0000
     12 C12         30.9282  38.0199  36.1131 C.3            1 <1>                0.0000
     13 C13         30.1081  36.9862  35.3386 C.3            1 <1>                0.0000
     14 C14         30.9855  39.3255  35.3175 C.3            1 <1>                0.0000
     15 C15         32.3475  37.4894  36.3255 C.3            1 <1>                0.0000
     16 H16         26.2231  38.1448  42.3621 H              1 <1>                0.0000
     17 H17         24.8562  37.5802  41.3715 H              1 <1>                0.0000
     18 H18         25.6850  36.4515  42.4704 H              1 <1>                0.0000
     19 H19         26.9213  37.7732  40.0128 H              1 <1>                0.0000
     20 H20         28.5435  37.3745  41.8448 H              1 <1>                0.0000
     21 H21         28.0053  35.6804  41.9529 H              1 <1>                0.0000
     22 H22         30.0501  35.8197  40.5875 H              1 <1>                0.0000
     23 H23         29.1472  34.7828  38.4952 H              1 <1>                0.0000
     24 H24         28.3647  34.1377  39.9590 H              1 <1>                0.0000
     25 H25         27.2532  36.3492  38.1723 H              1 <1>                0.0000
     26 H26         26.6863  34.6628  38.2097 H              1 <1>                0.0000
     27 H27         29.0970  37.3641  35.1872 H              1 <1>                0.0000
     28 H28         30.5758  36.8021  34.3713 H              1 <1>                0.0000
     29 H29         30.0674  36.0560  35.9053 H              1 <1>                0.0000
     30 H30         31.5697  40.0618  35.8693 H              1 <1>                0.0000
     31 H31         31.4531  39.1414  34.3503 H              1 <1>                0.0000
     32 H32         29.9743  39.7034  35.1662 H              1 <1>                0.0000
     33 H33         32.3068  36.5593  36.8923 H              1 <1>                0.0000
     34 H34         32.8152  37.3054  35.3584 H              1 <1>                0.0000
     35 H35         32.9318  38.2258  36.8774 H              1 <1>                0.0000
     36 H36         26.1625  34.9872  40.5310 H              1 <1>                0.0000
     37 H37         25.3263  36.0320  39.5718 H              1 <1>                0.0000
     38 H38         28.9475  38.1747  39.5310 H              1 <1>                0.0000
@<TRIPOS>BOND
    1    1    2 1     
    2    1   16 1     
    3    1   17 1     
    4    1   18 1     
    5    2    3 1     
    6    2    7 1     
    7    2   19 1     
    8    3    4 1     
    9    3   20 1     
   10    3   21 1     
   11    4    5 1     
   12    4    8 1     
   13    4   22 1     
   14    5    6 1     
   15    5   23 1     
   16    5   24 1     
   17    6    7 1     
   18    6   25 1     
   19    6   26 1     
   20    7   36 1     
   21    7   37 1     
   22    8    9 am    
   23    8   38 1     
   24    9   10 2     
   25    9   11 1     
   26   11   12 1     
   27   12   13 1     
   28   12   14 1     
   29   12   15 1     
   30   13   27 1     
   31   13   28 1     
   32   13   29 1     
   33   14   30 1     
   34   14   31 1     
   35   14   32 1     
   36   15   33 1     
   37   15   34 1     
   38   15   35 1     
@<TRIPOS>SUBSTRUCTURE
      1 ****           1
@<TRIPOS>SET
DONOR_HYDROGENS      STATIC     ATOMS    <user>   **** ""
3 36 37 38
ATOM$RED        STATIC     ATOMS    COLORGROUP SYSTEM
3 36 37 38
@<TRIPOS>COMMENT
> <Gold.Version>
2022.2.0

> <Gold.Id.Protein>
1qkm|1qkm_protein|mol2

> <Gold.Protein.RotatedTorsions>
[  496  491  490  487 ] final -163.03 input  -89.99 | X-H torsion

> <Gold.Protein.ActiveResidues>
 MET295  LEU298  THR299  LEU301  ALA302  GLU305  TRP335  MET336  LEU339  MET340 
 GLY342  LEU343  ARG346  PHE356  ILE373  ILE376  PHE377  LEU380  LYS471  GLY472 
 MET473  HIS475  LEU476  LEU477  ASN478  MET479  VAL484  VAL487 

> <Gold.Protein.RotatedAtoms>
   37.2856   33.7161   40.7593 H   0  0  0  0  0  0  0  0  0  0  0  0  # atno 496  bound_to 491 

> <Gold.Score>
     Score     S(PLP)   S(hbond)     S(cho)   S(metal)  DE(clash)   DE(tors)     intcor
     39.23     -39.63       0.00       0.00       0.00       0.63       0.13       0.48

> <Gold.PLP.Fitness>
39.2296

> <Gold.PLP.PLP>
-39.6340

> <Gold.PLP.part.hbond>
0.0000

> <Gold.PLP.part.metal>
0.0000

> <Gold.PLP.part.buried>
-1.7042

> <Gold.PLP.part.nonpolar>
-38.0923

> <Gold.PLP.part.repulsive>
0.0722

> <Gold.PLP.ligand.clash>
0.6254

> <Gold.PLP.ligand.torsion>
0.1297

> <Gold.PLP.Chemscore.Hbond>
0.0000

> <Gold.PLP.Chemscore.CHOScore>
0.0000

> <Gold.PLP.Chemscore.Metal>
0.0000

> <Gold.PLP.Chemscore.Internal.Correction>
0.4803

