#       Name:                EN300-92976_i004
#       Creating user name   aseyller
#       Creation time:       Sat Apr 22 06:40:14 2023


#       File generated by GOLD software.
#

@<TRIPOS>MOLECULE
EN300-92976_i004|amine_3|mol2|3775|dock12
    38    38     1
SMALL
USER_CHARGES


@<TRIPOS>ATOM
      1 C1          26.4222  36.9992  41.1109 C.3            1 <1>                0.0000
      2 C2          27.5151  36.6764  40.0900 C.3            1 <1>                0.0000
      3 C3          28.8792  36.6883  40.7832 C.3            1 <1>                0.0000
      4 C4          29.9696  36.3651  39.7576 C.3            1 <1>                0.0000
      5 C5          29.6607  35.0135  39.1073 C.3            1 <1>                0.0000
      6 C6          28.2676  35.0637  38.4762 C.3            1 <1>                0.0000
      7 N7          27.2674  35.3503  39.5117 N.4            1 <1>                1.0000
      8 N8          29.9994  37.4081  38.7292 N.am           1 <1>                0.0000
      9 C9          30.9326  37.3699  37.7575 C.2            1 <1>                0.0000
     10 O10         31.7492  36.4704  37.7345 O.2            1 <1>                0.0000
     11 O11         30.9600  38.3284  36.8124 O.3            1 <1>                0.0000
     12 C12         31.4579  37.9484  35.5024 C.3            1 <1>                0.0000
     13 C13         31.1917  39.0802  34.5078 C.3            1 <1>                0.0000
     14 C14         32.9629  37.6857  35.5853 C.3            1 <1>                0.0000
     15 C15         30.7437  36.6791  35.0338 C.3            1 <1>                0.0000
     16 H16         26.6042  37.9851  41.5387 H              1 <1>                0.0000
     17 H17         25.4503  36.9909  40.6175 H              1 <1>                0.0000
     18 H18         26.4335  36.2514  41.9039 H              1 <1>                0.0000
     19 H19         27.5041  37.4251  39.2978 H              1 <1>                0.0000
     20 H20         29.0619  37.6743  41.2103 H              1 <1>                0.0000
     21 H21         28.8914  35.9397  41.5755 H              1 <1>                0.0000
     22 H22         30.9372  36.3166  40.2573 H              1 <1>                0.0000
     23 H23         30.4020  34.8025  38.3366 H              1 <1>                0.0000
     24 H24         29.6891  34.2302  39.8648 H              1 <1>                0.0000
     25 H25         28.2404  35.8472  37.7189 H              1 <1>                0.0000
     26 H26         28.0445  34.1030  38.0123 H              1 <1>                0.0000
     27 H27         31.7005  39.9844  34.8415 H              1 <1>                0.0000
     28 H28         31.5654  38.7949  33.5243 H              1 <1>                0.0000
     29 H29         30.1195  39.2672  34.4486 H              1 <1>                0.0000
     30 H30         33.1525  36.8796  36.2939 H              1 <1>                0.0000
     31 H31         33.3366  37.4006  34.6019 H              1 <1>                0.0000
     32 H32         33.4717  38.5901  35.9191 H              1 <1>                0.0000
     33 H33         29.6715  36.8662  34.9748 H              1 <1>                0.0000
     34 H34         31.1174  36.3939  34.0505 H              1 <1>                0.0000
     35 H35         30.9332  35.8729  35.7424 H              1 <1>                0.0000
     36 H36         27.3265  34.6517  40.2374 H              1 <1>                0.0000
     37 H37         26.3455  35.3298  39.1022 H              1 <1>                0.0000
     38 H38         29.3476  38.1261  38.7477 H              1 <1>                0.0000
@<TRIPOS>BOND
    1    1    2 1     
    2    1   16 1     
    3    1   17 1     
    4    1   18 1     
    5    2    3 1     
    6    2    7 1     
    7    2   19 1     
    8    3    4 1     
    9    3   20 1     
   10    3   21 1     
   11    4    5 1     
   12    4    8 1     
   13    4   22 1     
   14    5    6 1     
   15    5   23 1     
   16    5   24 1     
   17    6    7 1     
   18    6   25 1     
   19    6   26 1     
   20    7   36 1     
   21    7   37 1     
   22    8    9 am    
   23    8   38 1     
   24    9   10 2     
   25    9   11 1     
   26   11   12 1     
   27   12   13 1     
   28   12   14 1     
   29   12   15 1     
   30   13   27 1     
   31   13   28 1     
   32   13   29 1     
   33   14   30 1     
   34   14   31 1     
   35   14   32 1     
   36   15   33 1     
   37   15   34 1     
   38   15   35 1     
@<TRIPOS>SUBSTRUCTURE
      1 ****           1
@<TRIPOS>SET
DONOR_HYDROGENS      STATIC     ATOMS    <user>   **** ""
3 36 37 38
ATOM$RED        STATIC     ATOMS    COLORGROUP SYSTEM
3 36 37 38
@<TRIPOS>COMMENT
> <Gold.Version>
2022.2.0

> <Gold.Id.Protein>
1qkm|1qkm_protein|mol2

> <Gold.Protein.RotatedTorsions>
[  496  491  490  487 ] final  -60.79 input  -89.99 | X-H torsion

> <Gold.Protein.ActiveResidues>
 MET295  LEU298  THR299  LEU301  ALA302  GLU305  TRP335  MET336  LEU339  MET340 
 GLY342  LEU343  ARG346  PHE356  ILE373  ILE376  PHE377  LEU380  LYS471  GLY472 
 MET473  HIS475  LEU476  LEU477  ASN478  MET479  VAL484  VAL487 

> <Gold.Protein.RotatedAtoms>
   36.5031   34.7331   41.4732 H   0  0  0  0  0  0  0  0  0  0  0  0  # atno 496  bound_to 491 

> <Gold.Score>
     Score     S(PLP)   S(hbond)     S(cho)   S(metal)  DE(clash)   DE(tors)     intcor
     36.33     -36.83       0.00       0.00       0.00       0.00       0.46       0.42

> <Gold.PLP.Fitness>
36.3300

> <Gold.PLP.PLP>
-36.8318

> <Gold.PLP.part.hbond>
0.0000

> <Gold.PLP.part.metal>
0.0000

> <Gold.PLP.part.buried>
-4.7063

> <Gold.PLP.part.nonpolar>
-32.6655

> <Gold.PLP.part.repulsive>
0.0311

> <Gold.PLP.ligand.clash>
0.0000

> <Gold.PLP.ligand.torsion>
0.4607

> <Gold.PLP.Chemscore.Hbond>
0.0000

> <Gold.PLP.Chemscore.CHOScore>
0.0000

> <Gold.PLP.Chemscore.Metal>
0.0000

> <Gold.PLP.Chemscore.Internal.Correction>
0.4195

