#       Name:                EN300-92976_i004
#       Creating user name   aseyller
#       Creation time:       Sat Apr 22 06:40:19 2023


#       File generated by GOLD software.
#

@<TRIPOS>MOLECULE
EN300-92976_i004|amine_3|mol2|3775|dock19
    38    38     1
SMALL
USER_CHARGES


@<TRIPOS>ATOM
      1 C1          25.7603  37.3168  42.1987 C.3            1 <1>                0.0000
      2 C2          26.3670  37.2426  40.7961 C.3            1 <1>                0.0000
      3 C3          26.9332  35.8408  40.5595 C.3            1 <1>                0.0000
      4 C4          27.5394  35.7716  39.1549 C.3            1 <1>                0.0000
      5 C5          26.4669  36.1454  38.1276 C.3            1 <1>                0.0000
      6 C6          25.9181  37.5359  38.4543 C.3            1 <1>                0.0000
      7 N7          25.3290  37.5298  39.7988 N.4            1 <1>                1.0000
      8 N8          28.6594  36.7109  39.0578 N.am           1 <1>                0.0000
      9 C9          29.8405  36.3017  38.5539 C.2            1 <1>                0.0000
     10 O10         29.9764  35.1535  38.1801 O.2            1 <1>                0.0000
     11 O11         30.8698  37.1651  38.4646 O.3            1 <1>                0.0000
     12 C12         31.8189  36.9502  37.3870 C.3            1 <1>                0.0000
     13 C13         31.0633  36.7915  36.0661 C.3            1 <1>                0.0000
     14 C14         32.7640  38.1497  37.2931 C.3            1 <1>                0.0000
     15 C15         32.6294  35.6830  37.6663 C.3            1 <1>                0.0000
     16 H16         26.5314  37.1063  42.9398 H              1 <1>                0.0000
     17 H17         25.3569  38.3153  42.3677 H              1 <1>                0.0000
     18 H18         24.9604  36.5819  42.2878 H              1 <1>                0.0000
     19 H19         27.1676  37.9770  40.7078 H              1 <1>                0.0000
     20 H20         27.7049  35.6303  41.2999 H              1 <1>                0.0000
     21 H21         26.1332  35.1056  40.6473 H              1 <1>                0.0000
     22 H22         27.8935  34.7591  38.9603 H              1 <1>                0.0000
     23 H23         26.9055  36.1524  37.1298 H              1 <1>                0.0000
     24 H24         25.6574  35.4164  38.1650 H              1 <1>                0.0000
     25 H25         26.7285  38.2639  38.4165 H              1 <1>                0.0000
     26 H26         25.1544  37.8052  37.7248 H              1 <1>                0.0000
     27 H27         30.4859  37.6943  35.8670 H              1 <1>                0.0000
     28 H28         31.7758  36.6302  35.2570 H              1 <1>                0.0000
     29 H29         30.3901  35.9369  36.1330 H              1 <1>                0.0000
     30 H30         33.3022  38.2628  38.2341 H              1 <1>                0.0000
     31 H31         33.4764  37.9885  36.4841 H              1 <1>                0.0000
     32 H32         32.1865  39.0526  37.0940 H              1 <1>                0.0000
     33 H33         31.9562  34.8284  37.7334 H              1 <1>                0.0000
     34 H34         33.3419  35.5217  36.8574 H              1 <1>                0.0000
     35 H35         33.1677  35.7960  38.6075 H              1 <1>                0.0000
     36 H36         24.6120  36.8216  39.8476 H              1 <1>                0.0000
     37 H37         24.9209  38.4325  39.9900 H              1 <1>                0.0000
     38 H38         28.5508  37.6275  39.3563 H              1 <1>                0.0000
@<TRIPOS>BOND
    1    1    2 1     
    2    1   16 1     
    3    1   17 1     
    4    1   18 1     
    5    2    3 1     
    6    2    7 1     
    7    2   19 1     
    8    3    4 1     
    9    3   20 1     
   10    3   21 1     
   11    4    5 1     
   12    4    8 1     
   13    4   22 1     
   14    5    6 1     
   15    5   23 1     
   16    5   24 1     
   17    6    7 1     
   18    6   25 1     
   19    6   26 1     
   20    7   36 1     
   21    7   37 1     
   22    8    9 am    
   23    8   38 1     
   24    9   10 2     
   25    9   11 1     
   26   11   12 1     
   27   12   13 1     
   28   12   14 1     
   29   12   15 1     
   30   13   27 1     
   31   13   28 1     
   32   13   29 1     
   33   14   30 1     
   34   14   31 1     
   35   14   32 1     
   36   15   33 1     
   37   15   34 1     
   38   15   35 1     
@<TRIPOS>SUBSTRUCTURE
      1 ****           1
@<TRIPOS>SET
DONOR_HYDROGENS      STATIC     ATOMS    <user>   **** ""
3 36 37 38
ATOM$RED        STATIC     ATOMS    COLORGROUP SYSTEM
3 36 37 38
@<TRIPOS>COMMENT
> <Gold.Version>
2022.2.0

> <Gold.Id.Protein>
1qkm|1qkm_protein|mol2

> <Gold.Protein.RotatedTorsions>
[  496  491  490  487 ] final -127.48 input  -89.99 | X-H torsion

> <Gold.Protein.ActiveResidues>
 MET295  LEU298  THR299  LEU301  ALA302  GLU305  TRP335  MET336  LEU339  MET340 
 GLY342  LEU343  ARG346  PHE356  ILE373  ILE376  PHE377  LEU380  LYS471  GLY472 
 MET473  HIS475  LEU476  LEU477  ASN478  MET479  VAL484  VAL487 

> <Gold.Protein.RotatedAtoms>
   37.0858   34.2561   40.7604 H   0  0  0  0  0  0  0  0  0  0  0  0  # atno 496  bound_to 491 

> <Gold.Score>
     Score     S(PLP)   S(hbond)     S(cho)   S(metal)  DE(clash)   DE(tors)     intcor
     34.27     -33.87       0.37       0.00       0.00       0.00       0.56       0.41

> <Gold.PLP.Fitness>
34.2664

> <Gold.PLP.PLP>
-33.8698

> <Gold.PLP.part.hbond>
-0.3259

> <Gold.PLP.part.metal>
0.0000

> <Gold.PLP.part.buried>
1.2996

> <Gold.PLP.part.nonpolar>
-34.1678

> <Gold.PLP.part.repulsive>
0.1881

> <Gold.PLP.ligand.clash>
0.0000

> <Gold.PLP.ligand.torsion>
0.5566

> <Gold.PLP.Chemscore.Hbond>
0.3656

> <Gold.PLP.Chemscore.CHOScore>
0.0000

> <Gold.PLP.Chemscore.Metal>
0.0000

> <Gold.Chemscore.Hbonds>
donor molecule, donor type, donor heavy atom, donor atom, acceptor molecule, acceptor atom, score
      L1  H     7    36       P1  1131  0.37

> <Gold.PLP.Chemscore.Internal.Correction>
0.4130

