#       Name:                EN300-92976_i004
#       Creating user name   aseyller
#       Creation time:       Sat Apr 22 06:40:13 2023


#       File generated by GOLD software.
#

@<TRIPOS>MOLECULE
EN300-92976_i004|amine_3|mol2|3775|dock11
    38    38     1
SMALL
USER_CHARGES


@<TRIPOS>ATOM
      1 C1          28.7990  36.5061  42.3163 C.3            1 <1>                0.0000
      2 C2          28.4150  36.7719  40.8593 C.3            1 <1>                0.0000
      3 C3          29.0890  35.7353  39.9578 C.3            1 <1>                0.0000
      4 C4          28.7020  36.0055  38.5009 C.3            1 <1>                0.0000
      5 C5          27.1760  35.9796  38.3750 C.3            1 <1>                0.0000
      6 C6          26.5730  37.0071  39.3353 C.3            1 <1>                0.0000
      7 N7          26.9575  36.6789  40.7133 N.4            1 <1>                1.0000
      8 N8          29.2047  37.3207  38.0963 N.am           1 <1>                0.0000
      9 C9          30.2302  37.4119  37.2266 C.2            1 <1>                0.0000
     10 O10         30.7380  36.4032  36.7781 O.2            1 <1>                0.0000
     11 O11         30.6922  38.6207  36.8548 O.3            1 <1>                0.0000
     12 C12         31.2622  38.7277  35.5236 C.3            1 <1>                0.0000
     13 C13         31.4605  40.2032  35.1708 C.3            1 <1>                0.0000
     14 C14         32.6123  38.0087  35.4876 C.3            1 <1>                0.0000
     15 C15         30.3144  38.0838  34.5097 C.3            1 <1>                0.0000
     16 H16         29.8812  36.5778  42.4258 H              1 <1>                0.0000
     17 H17         28.3192  37.2444  42.9589 H              1 <1>                0.0000
     18 H18         28.4703  35.5071  42.6022 H              1 <1>                0.0000
     19 H19         28.7449  37.7707  40.5735 H              1 <1>                0.0000
     20 H20         30.1712  35.8073  40.0663 H              1 <1>                0.0000
     21 H21         28.7595  34.7361  40.2425 H              1 <1>                0.0000
     22 H22         29.1338  35.2363  37.8604 H              1 <1>                0.0000
     23 H23         26.8909  36.2260  37.3523 H              1 <1>                0.0000
     24 H24         26.8070  34.9854  38.6269 H              1 <1>                0.0000
     25 H25         26.9426  38.0008  39.0822 H              1 <1>                0.0000
     26 H26         25.4866  36.9913  39.2481 H              1 <1>                0.0000
     27 H27         32.1357  40.6619  35.8931 H              1 <1>                0.0000
     28 H28         31.8884  40.2835  34.1715 H              1 <1>                0.0000
     29 H29         30.4986  40.7154  35.1964 H              1 <1>                0.0000
     30 H30         32.4710  36.9577  35.7390 H              1 <1>                0.0000
     31 H31         33.0402  38.0891  34.4884 H              1 <1>                0.0000
     32 H32         33.2875  38.4675  36.2100 H              1 <1>                0.0000
     33 H33         29.3525  38.5959  34.5353 H              1 <1>                0.0000
     34 H34         30.7422  38.1641  33.5105 H              1 <1>                0.0000
     35 H35         30.1730  37.0326  34.7611 H              1 <1>                0.0000
     36 H36         26.6579  35.7402  40.9305 H              1 <1>                0.0000
     37 H37         26.5149  37.3264  41.3481 H              1 <1>                0.0000
     38 H38         28.7994  38.1260  38.4544 H              1 <1>                0.0000
@<TRIPOS>BOND
    1    1    2 1     
    2    1   16 1     
    3    1   17 1     
    4    1   18 1     
    5    2    3 1     
    6    2    7 1     
    7    2   19 1     
    8    3    4 1     
    9    3   20 1     
   10    3   21 1     
   11    4    5 1     
   12    4    8 1     
   13    4   22 1     
   14    5    6 1     
   15    5   23 1     
   16    5   24 1     
   17    6    7 1     
   18    6   25 1     
   19    6   26 1     
   20    7   36 1     
   21    7   37 1     
   22    8    9 am    
   23    8   38 1     
   24    9   10 2     
   25    9   11 1     
   26   11   12 1     
   27   12   13 1     
   28   12   14 1     
   29   12   15 1     
   30   13   27 1     
   31   13   28 1     
   32   13   29 1     
   33   14   30 1     
   34   14   31 1     
   35   14   32 1     
   36   15   33 1     
   37   15   34 1     
   38   15   35 1     
@<TRIPOS>SUBSTRUCTURE
      1 ****           1
@<TRIPOS>SET
DONOR_HYDROGENS      STATIC     ATOMS    <user>   **** ""
3 36 37 38
ATOM$RED        STATIC     ATOMS    COLORGROUP SYSTEM
3 36 37 38
@<TRIPOS>COMMENT
> <Gold.Version>
2022.2.0

> <Gold.Id.Protein>
1qkm|1qkm_protein|mol2

> <Gold.Protein.RotatedTorsions>
[  496  491  490  487 ] final  147.09 input  -89.99 | X-H torsion

> <Gold.Protein.ActiveResidues>
 MET295  LEU298  THR299  LEU301  ALA302  GLU305  TRP335  MET336  LEU339  MET340 
 GLY342  LEU343  ARG346  PHE356  ILE373  ILE376  PHE377  LEU380  LYS471  GLY472 
 MET473  HIS475  LEU476  LEU477  ASN478  MET479  VAL484  VAL487 

> <Gold.Protein.RotatedAtoms>
   37.2500   33.0788   41.2340 H   0  0  0  0  0  0  0  0  0  0  0  0  # atno 496  bound_to 491 

> <Gold.Score>
     Score     S(PLP)   S(hbond)     S(cho)   S(metal)  DE(clash)   DE(tors)     intcor
     36.35     -37.11       0.00       0.00       0.00       0.00       0.59       0.42

> <Gold.PLP.Fitness>
36.3487

> <Gold.PLP.PLP>
-37.1133

> <Gold.PLP.part.hbond>
0.0000

> <Gold.PLP.part.metal>
0.0000

> <Gold.PLP.part.buried>
-4.8333

> <Gold.PLP.part.nonpolar>
-33.2588

> <Gold.PLP.part.repulsive>
0.0117

> <Gold.PLP.ligand.clash>
0.0000

> <Gold.PLP.ligand.torsion>
0.5921

> <Gold.PLP.Chemscore.Hbond>
0.0000

> <Gold.PLP.Chemscore.CHOScore>
0.0000

> <Gold.PLP.Chemscore.Metal>
0.0000

> <Gold.PLP.Chemscore.Internal.Correction>
0.4195

