#       Name:                EN300-92976_i004
#       Creating user name   aseyller
#       Creation time:       Sat Apr 22 06:40:17 2023


#       File generated by GOLD software.
#

@<TRIPOS>MOLECULE
EN300-92976_i004|amine_3|mol2|3775|dock16
    38    38     1
SMALL
USER_CHARGES


@<TRIPOS>ATOM
      1 C1          29.3131  36.4829  42.6435 C.3            1 <1>                0.0000
      2 C2          28.3831  36.6605  41.4416 C.3            1 <1>                0.0000
      3 C3          28.5850  35.4996  40.4654 C.3            1 <1>                0.0000
      4 C4          27.6526  35.6819  39.2643 C.3            1 <1>                0.0000
      5 C5          26.2075  35.7769  39.7622 C.3            1 <1>                0.0000
      6 C6          26.0937  36.9275  40.7645 C.3            1 <1>                0.0000
      7 N7          26.9892  36.6814  41.9011 N.4            1 <1>                1.0000
      8 N8          28.0069  36.9115  38.5512 N.am           1 <1>                0.0000
      9 C9          29.2253  37.0372  37.9888 C.2            1 <1>                0.0000
     10 O10         30.0299  36.1306  38.0734 O.2            1 <1>                0.0000
     11 O11         29.5509  38.1673  37.3334 O.3            1 <1>                0.0000
     12 C12         30.5556  38.0585  36.2908 C.3            1 <1>                0.0000
     13 C13         31.9182  37.7692  36.9238 C.3            1 <1>                0.0000
     14 C14         30.1827  36.9193  35.3400 C.3            1 <1>                0.0000
     15 C15         30.6247  39.3724  35.5100 C.3            1 <1>                0.0000
     16 H16         30.3485  36.4701  42.3030 H              1 <1>                0.0000
     17 H17         29.1696  37.3097  43.3392 H              1 <1>                0.0000
     18 H18         29.0837  35.5425  43.1445 H              1 <1>                0.0000
     19 H19         28.6136  37.6006  40.9403 H              1 <1>                0.0000
     20 H20         29.6201  35.4870  40.1240 H              1 <1>                0.0000
     21 H21         28.3545  34.5590  40.9657 H              1 <1>                0.0000
     22 H22         27.7516  34.8286  38.5932 H              1 <1>                0.0000
     23 H23         25.5432  35.9624  38.9182 H              1 <1>                0.0000
     24 H24         25.9277  34.8421  40.2478 H              1 <1>                0.0000
     25 H25         26.3736  37.8618  40.2776 H              1 <1>                0.0000
     26 H26         25.0661  36.9981  41.1208 H              1 <1>                0.0000
     27 H27         31.8690  36.8332  37.4800 H              1 <1>                0.0000
     28 H28         32.6725  37.6875  36.1411 H              1 <1>                0.0000
     29 H29         32.1840  38.5809  37.6010 H              1 <1>                0.0000
     30 H30         29.2120  37.1254  34.8892 H              1 <1>                0.0000
     31 H31         30.9369  36.8376  34.5574 H              1 <1>                0.0000
     32 H32         30.1334  35.9832  35.8964 H              1 <1>                0.0000
     33 H33         30.8904  40.1841  36.1873 H              1 <1>                0.0000
     34 H34         31.3789  39.2908  34.7273 H              1 <1>                0.0000
     35 H35         29.6540  39.5786  35.0591 H              1 <1>                0.0000
     36 H36         26.7613  35.7929  42.3213 H              1 <1>                0.0000
     37 H37         26.8725  37.4143  42.5848 H              1 <1>                0.0000
     38 H38         27.3646  37.6353  38.4837 H              1 <1>                0.0000
@<TRIPOS>BOND
    1    1    2 1     
    2    1   16 1     
    3    1   17 1     
    4    1   18 1     
    5    2    3 1     
    6    2    7 1     
    7    2   19 1     
    8    3    4 1     
    9    3   20 1     
   10    3   21 1     
   11    4    5 1     
   12    4    8 1     
   13    4   22 1     
   14    5    6 1     
   15    5   23 1     
   16    5   24 1     
   17    6    7 1     
   18    6   25 1     
   19    6   26 1     
   20    7   36 1     
   21    7   37 1     
   22    8    9 am    
   23    8   38 1     
   24    9   10 2     
   25    9   11 1     
   26   11   12 1     
   27   12   13 1     
   28   12   14 1     
   29   12   15 1     
   30   13   27 1     
   31   13   28 1     
   32   13   29 1     
   33   14   30 1     
   34   14   31 1     
   35   14   32 1     
   36   15   33 1     
   37   15   34 1     
   38   15   35 1     
@<TRIPOS>SUBSTRUCTURE
      1 ****           1
@<TRIPOS>SET
DONOR_HYDROGENS      STATIC     ATOMS    <user>   **** ""
3 36 37 38
ATOM$RED        STATIC     ATOMS    COLORGROUP SYSTEM
3 36 37 38
@<TRIPOS>COMMENT
> <Gold.Version>
2022.2.0

> <Gold.Id.Protein>
1qkm|1qkm_protein|mol2

> <Gold.Protein.RotatedTorsions>
[  496  491  490  487 ] final  -68.86 input  -89.99 | X-H torsion

> <Gold.Protein.ActiveResidues>
 MET295  LEU298  THR299  LEU301  ALA302  GLU305  TRP335  MET336  LEU339  MET340 
 GLY342  LEU343  ARG346  PHE356  ILE373  ILE376  PHE377  LEU380  LYS471  GLY472 
 MET473  HIS475  LEU476  LEU477  ASN478  MET479  VAL484  VAL487 

> <Gold.Protein.RotatedAtoms>
   36.5686   34.7340   41.3578 H   0  0  0  0  0  0  0  0  0  0  0  0  # atno 496  bound_to 491 

> <Gold.Score>
     Score     S(PLP)   S(hbond)     S(cho)   S(metal)  DE(clash)   DE(tors)     intcor
     40.21     -34.71       1.98       0.00       0.00       0.00       0.43       0.41

> <Gold.PLP.Fitness>
40.2066

> <Gold.PLP.PLP>
-34.7125

> <Gold.PLP.part.hbond>
-1.0000

> <Gold.PLP.part.metal>
0.0000

> <Gold.PLP.part.buried>
-2.7523

> <Gold.PLP.part.nonpolar>
-31.5061

> <Gold.PLP.part.repulsive>
0.0684

> <Gold.PLP.ligand.clash>
0.0000

> <Gold.PLP.ligand.torsion>
0.4332

> <Gold.PLP.Chemscore.Hbond>
1.9825

> <Gold.PLP.Chemscore.CHOScore>
0.0000

> <Gold.PLP.Chemscore.Metal>
0.0000

> <Gold.Chemscore.Hbonds>
donor molecule, donor type, donor heavy atom, donor atom, acceptor molecule, acceptor atom, score
      L1  H     7    36       P1   582  1.98

> <Gold.PLP.Chemscore.Internal.Correction>
0.4130

