#       Name:                plp ligand
#       Creating user name   aseyller
#       Creation time:       Sat Apr 22 06:40:06 2023


#       File generated by GOLD software.
#

@<TRIPOS>MOLECULE
plp ligand
    38    38     1
SMALL
USER_CHARGES


@<TRIPOS>ATOM
      1 C1           4.2808   1.6514   0.0672 NONPOLAR       1 <1>                0.0000
      2 C2           3.0468   0.7584   0.2108 NONPOLAR       1 <1>                0.0000
      3 C3           2.4256   0.5224  -1.1676 NONPOLAR       1 <1>                0.0000
      4 C4           1.1910  -0.3714  -1.0187 NONPOLAR       1 <1>                0.0000
      5 C5           1.5992  -1.6792  -0.3344 NONPOLAR       1 <1>                0.0000
      6 C6           2.2510  -1.3616   1.0131 NONPOLAR       1 <1>                0.0000
      7 N7           3.4396  -0.5268   0.8011 DONOR          1 <1>                1.0000
      8 N8           0.1850   0.3145  -0.2041 DONOR          1 <1>                0.0000
      9 C9          -1.1186  -0.0011  -0.3363 NONPOLAR       1 <1>                0.0000
     10 O10         -1.4595  -0.8545  -1.1313 ACCEPTOR       1 <1>                0.0000
     11 O11         -2.0432   0.6293   0.4124 ACCEPTOR       1 <1>                0.0000
     12 C12         -3.4279   0.2384   0.2170 NONPOLAR       1 <1>                0.0000
     13 C13         -3.5872  -1.2499   0.5340 NONPOLAR       1 <1>                0.0000
     14 C14         -4.3251   1.0570   1.1475 NONPOLAR       1 <1>                0.0000
     15 C15         -3.8304   0.4962  -1.2364 NONPOLAR       1 <1>                0.0000
     16 H16          3.9891   2.6070  -0.3686                1 <1>                0.0000
     17 H17          4.7236   1.8198   1.0489                1 <1>                0.0000
     18 H18          5.0088   1.1636  -0.5809                1 <1>                0.0000
     19 H19          2.3186   1.2471   0.8582                1 <1>                0.0000
     20 H20          2.1330   1.4777  -1.6033                1 <1>                0.0000
     21 H21          3.1529   0.0334  -1.8157                1 <1>                0.0000
     22 H22          0.7776  -0.5889  -2.0036                1 <1>                0.0000
     23 H23          0.7159  -2.2975  -0.1747                1 <1>                0.0000
     24 H24          2.3093  -2.2138  -0.9653                1 <1>                0.0000
     25 H25          1.5399  -0.8272   1.6431                1 <1>                0.0000
     26 H26          2.5427  -2.2905   1.5030                1 <1>                0.0000
     27 H27         -3.3005  -1.4336   1.5694                1 <1>                0.0000
     28 H28         -4.6267  -1.5434   0.3873                1 <1>                0.0000
     29 H29         -2.9481  -1.8331  -0.1290                1 <1>                0.0000
     30 H30         -4.2115   2.1172   0.9217                1 <1>                0.0000
     31 H31         -5.3645   0.7635   1.0009                1 <1>                0.0000
     32 H32         -4.0383   0.8733   2.1830                1 <1>                0.0000
     33 H33         -3.1912  -0.0869  -1.8994                1 <1>                0.0000
     34 H34         -4.8698   0.2028  -1.3831                1 <1>                0.0000
     35 H35         -3.7168   1.5565  -1.4623                1 <1>                0.0000
     36 H36          4.0759  -1.0014   0.1782                1 <1>                0.0000
     37 H37          3.8969  -0.3638   1.6856                1 <1>                0.0000
     38 H38          0.4571   0.9958   0.4305                1 <1>                0.0000
@<TRIPOS>BOND
    1    1    2 1     
    2    1   16 1     
    3    1   17 1     
    4    1   18 1     
    5    2    3 1     
    6    2    7 1     
    7    2   19 1     
    8    3    4 1     
    9    3   20 1     
   10    3   21 1     
   11    4    5 1     
   12    4    8 1     
   13    4   22 1     
   14    5    6 1     
   15    5   23 1     
   16    5   24 1     
   17    6    7 1     
   18    6   25 1     
   19    6   26 1     
   20    7   36 1     
   21    7   37 1     
   22    8    9 am    
   23    8   38 1     
   24    9   10 2     
   25    9   11 1     
   26   11   12 1     
   27   12   13 1     
   28   12   14 1     
   29   12   15 1     
   30   13   27 1     
   31   13   28 1     
   32   13   29 1     
   33   14   30 1     
   34   14   31 1     
   35   14   32 1     
   36   15   33 1     
   37   15   34 1     
   38   15   35 1     
@<TRIPOS>SUBSTRUCTURE
      1 ****           1
@<TRIPOS>SET
DONOR_HYDROGENS      STATIC     ATOMS    <user>   **** ""
3 36 37 38
ATOM$RED        STATIC     ATOMS    COLORGROUP SYSTEM
3 36 37 38
