#       Name:                EN300-119689_i002
#       Creating user name   fsindt
#       Creation time:       Wed Mar  1 03:38:16 2023


#       File generated by GOLD software.
#

@<TRIPOS>MOLECULE
EN300-119689_i002|amine_1|mol2|7803|dock8
    26    26     1
SMALL
USER_CHARGES


@<TRIPOS>ATOM
      1 N1           0.9839 -16.2058  11.7468 N.4            1 <1>                1.0000
      2 C2           0.2200 -15.0375  11.2890 C.3            1 <1>                0.0000
      3 C3           0.8661 -14.4695  10.0237 C.3            1 <1>                0.0000
      4 O4           0.7695 -15.4279   8.9681 O.3            1 <1>                0.0000
      5 C5           0.1536 -13.2044   9.6205 C.ar           1 <1>                0.0000
      6 C6           0.5564 -12.5145   8.4922 C.ar           1 <1>                0.0000
      7 C7          -0.0954 -11.3532   8.1195 C.ar           1 <1>                0.0000
      8 C8          -1.1510 -10.8796   8.8741 C.ar           1 <1>                0.0000
      9 C9          -1.5575 -11.5706  10.0068 C.ar           1 <1>                0.0000
     10 O10         -2.5960 -11.1070  10.7507 O.3            1 <1>                0.0000
     11 C11         -3.7476 -10.6461  10.0410 C.3            1 <1>                0.0000
     12 F12         -4.2930 -11.7013   9.3019 F              1 <1>                0.0000
     13 F13         -4.6988 -10.1744  10.9520 F              1 <1>                0.0000
     14 C14         -0.9054 -12.7380  10.3754 C.ar           1 <1>                0.0000
     15 H15         -0.8051 -15.3366  11.0705 H              1 <1>                0.0000
     16 H16          0.2180 -14.2763  12.0691 H              1 <1>                0.0000
     17 H17          1.9156 -14.2490  10.2193 H              1 <1>                0.0000
     18 H18          1.3817 -12.8829   7.9010 H              1 <1>                0.0000
     19 H19          0.2213 -10.8158   7.2379 H              1 <1>                0.0000
     20 H20         -1.6592  -9.9723   8.5831 H              1 <1>                0.0000
     21 H21         -3.4600  -9.8402   9.3660 H              1 <1>                0.0000
     22 H22         -1.2199 -13.2775  11.2566 H              1 <1>                0.0000
     23 H23          1.5586 -15.9444  12.5339 H              1 <1>                0.0000
     24 H24          0.3464 -16.9370  12.0239 H              1 <1>                0.0000
     25 H25          1.5716 -16.5382  10.9970 H              1 <1>                0.0000
     26 H26          1.3484 -16.1946   9.0788 H              1 <1>                0.0000
@<TRIPOS>BOND
    1    1    2 1     
    2    1   23 1     
    3    1   24 1     
    4    1   25 1     
    5    2    3 1     
    6    2   15 1     
    7    2   16 1     
    8    3    4 1     
    9    3    5 1     
   10    3   17 1     
   11    4   26 1     
   12    5    6 ar    
   13    5   14 ar    
   14    6    7 ar    
   15    6   18 1     
   16    7    8 ar    
   17    7   19 1     
   18    8    9 ar    
   19    8   20 1     
   20    9   10 1     
   21    9   14 ar    
   22   10   11 1     
   23   11   12 1     
   24   11   13 1     
   25   11   21 1     
   26   14   22 1     
@<TRIPOS>SUBSTRUCTURE
      1 ****           1
@<TRIPOS>SET
DONOR_HYDROGENS      STATIC     ATOMS    <user>   **** ""
4 23 24 25 26
ATOM$RED        STATIC     ATOMS    COLORGROUP SYSTEM
4 23 24 25 26
@<TRIPOS>COMMENT
> <Gold.Version>
2022.2.0

> <Gold.Id.Protein>
3pbl|protein|mol2

> <Gold.Protein.RotatedTorsions>
[ 1303 1298 1297 1294 ] final  175.67 input  179.99 | X-H torsion
[ 2461 2456 2455 2452 ] final    5.29 input   30.03 | X-H torsion
[ 2515 2510 2509 2506 ] final   24.04 input  -89.99 | X-H torsion
[ 3721 3712 3711 3710 ] final  175.45 input -179.91 | X-H torsion
[ 3841 3832 3831 3830 ] final  -34.85 input -179.91 | X-H torsion
[ 3767 3762 3761 3758 ] final    4.98 input  -89.99 | X-H torsion
[ 2472 2467 2466 2463 ] final  -82.79 input  -89.97 | X-H torsion

> <Gold.Protein.ActiveResidues>
 VAL82   VAL86   LEU89   PHE106  VAL107  ASP110  VAL111  MET112  CYS114  THR115 
 CYS181  SER182  ILE183  PHE188  VAL189  ILE190  SER192  SER193  SER196  TRP342 
 PHE345  PHE346  HIS349  VAL350  TYR365  THR369  GLY372  TYR373 

> <Gold.Protein.RotatedAtoms>
    4.8750   -8.9326    4.7173 H   0  0  0  0  0  0  0  0  0  0  0  0  # atno 1303 bound_to 1298
    1.1241   -7.9627    7.0342 H   0  0  0  0  0  0  0  0  0  0  0  0  # atno 2461 bound_to 2456
   -3.9504   -5.3104    9.2319 H   0  0  0  0  0  0  0  0  0  0  0  0  # atno 2472 bound_to 2467
    2.3732   -7.4461    4.9121 H   0  0  0  0  0  0  0  0  0  0  0  0  # atno 2515 bound_to 2510
   -3.3109  -16.6361   13.4852 H   0  0  0  0  0  0  0  0  0  0  0  0  # atno 3721 bound_to 3712
   -5.2760  -22.7775   10.1191 H   0  0  0  0  0  0  0  0  0  0  0  0  # atno 3767 bound_to 3762
    1.5633  -20.0743    9.2966 H   0  0  0  0  0  0  0  0  0  0  0  0  # atno 3841 bound_to 3832
    3.9495  -10.2721    4.5933 LP  0  0  0  0  0  0  0  0  0  0  0  0  # atno 4297 bound_to 1298
    3.5374   -8.9168    3.7809 LP  0  0  0  0  0  0  0  0  0  0  0  0  # atno 4298 bound_to 1298
    0.5212   -9.1366    7.9964 LP  0  0  0  0  0  0  0  0  0  0  0  0  # atno 4299 bound_to 2456
    2.0924   -8.7087    8.1174 LP  0  0  0  0  0  0  0  0  0  0  0  0  # atno 4300 bound_to 2456
    2.8076   -9.0023    4.6773 LP  0  0  0  0  0  0  0  0  0  0  0  0  # atno 4301 bound_to 2510
    2.1160   -8.5512    6.0861 LP  0  0  0  0  0  0  0  0  0  0  0  0  # atno 4302 bound_to 2510
   -2.7081  -18.1232   13.4303 LP  0  0  0  0  0  0  0  0  0  0  0  0  # atno 4306 bound_to 3712
   -2.9970  -17.3965   14.8639 LP  0  0  0  0  0  0  0  0  0  0  0  0  # atno 4307 bound_to 3712
    2.6575  -19.8849    8.1378 LP  0  0  0  0  0  0  0  0  0  0  0  0  # atno 4314 bound_to 3832
    2.7659  -21.1316    9.1869 LP  0  0  0  0  0  0  0  0  0  0  0  0  # atno 4315 bound_to 3832
   -4.9171  -21.9478   11.4791 LP  0  0  0  0  0  0  0  0  0  0  0  0  # atno 4318 bound_to 3762
   -3.9345  -23.1497   10.9726 LP  0  0  0  0  0  0  0  0  0  0  0  0  # atno 4319 bound_to 3762
   -5.4911   -5.2844    8.6917 LP  0  0  0  0  0  0  0  0  0  0  0  0  # atno 4320 bound_to 2467
   -4.2753   -4.7988    7.7156 LP  0  0  0  0  0  0  0  0  0  0  0  0  # atno 4321 bound_to 2467

> <Gold.Score>
     Score     S(PLP)   S(hbond)     S(cho)   S(metal)  DE(clash)   DE(tors)     intcor
     54.21     -46.75       3.00       0.00       0.00       1.15       0.22       0.05

> <Gold.PLP.Fitness>
54.2123

> <Gold.PLP.PLP>
-46.7549

> <Gold.PLP.part.hbond>
-2.0000

> <Gold.PLP.part.metal>
0.0000

> <Gold.PLP.part.buried>
-4.5895

> <Gold.PLP.part.nonpolar>
-40.6991

> <Gold.PLP.part.repulsive>
0.0449

> <Gold.PLP.ligand.clash>
1.1459

> <Gold.PLP.ligand.torsion>
0.2239

> <Gold.PLP.Chemscore.Hbond>
3.0000

> <Gold.PLP.Chemscore.CHOScore>
0.0000

> <Gold.PLP.Chemscore.Metal>
0.0000

> <Gold.Chemscore.Hbonds>
donor molecule, donor type, donor heavy atom, donor atom, acceptor molecule, acceptor atom, score
      L1  H     1    25       P1  1227  2.00
      L1  H     4    26       P1  1227  1.00

> <Gold.PLP.Chemscore.Internal.Correction>
0.0511

