#       Name:                EN300-119689_i002
#       Creating user name   fsindt
#       Creation time:       Wed Mar  1 03:38:23 2023


#       File generated by GOLD software.
#

@<TRIPOS>MOLECULE
EN300-119689_i002|amine_1|mol2|7803|dock16
    26    26     1
SMALL
USER_CHARGES


@<TRIPOS>ATOM
      1 N1           0.1163 -16.5208   9.1276 N.4            1 <1>                1.0000
      2 C2          -0.1176 -16.1820  10.5377 C.3            1 <1>                0.0000
      3 C3           0.6735 -14.9228  10.8977 C.3            1 <1>                0.0000
      4 O4           2.0700 -15.2256  10.9127 O.3            1 <1>                0.0000
      5 C5           0.4030 -13.8500   9.8746 C.ar           1 <1>                0.0000
      6 C6           1.2522 -13.6956   8.7947 C.ar           1 <1>                0.0000
      7 C7           1.0068 -12.7121   7.8540 C.ar           1 <1>                0.0000
      8 C8          -0.0880 -11.8812   7.9914 C.ar           1 <1>                0.0000
      9 C9          -0.9422 -12.0344   9.0743 C.ar           1 <1>                0.0000
     10 O10         -2.0202 -11.2185   9.2115 O.3            1 <1>                0.0000
     11 C11         -2.6383 -11.1710  10.4991 C.3            1 <1>                0.0000
     12 F12         -1.7864 -10.5258  11.4019 F              1 <1>                0.0000
     13 F13         -3.8444 -10.4674  10.4118 F              1 <1>                0.0000
     14 C14         -0.6966 -13.0251  10.0135 C.ar           1 <1>                0.0000
     15 H15         -1.1807 -16.0009  10.6964 H              1 <1>                0.0000
     16 H16          0.2083 -17.0086  11.1690 H              1 <1>                0.0000
     17 H17          0.3675 -14.5708  11.8829 H              1 <1>                0.0000
     18 H18          2.1090 -14.3440   8.6856 H              1 <1>                0.0000
     19 H19          1.6718 -12.5932   7.0114 H              1 <1>                0.0000
     20 H20         -0.2789 -11.1128   7.2571 H              1 <1>                0.0000
     21 H21         -2.8339 -12.1857  10.8458 H              1 <1>                0.0000
     22 H22         -1.3600 -13.1463  10.8572 H              1 <1>                0.0000
     23 H23         -0.5760 -17.1887   8.8230 H              1 <1>                0.0000
     24 H24          0.0483 -15.6859   8.5653 H              1 <1>                0.0000
     25 H25          1.0370 -16.9207   9.0260 H              1 <1>                0.0000
     26 H26          2.3278 -15.9230  10.2944 H              1 <1>                0.0000
@<TRIPOS>BOND
    1    1    2 1     
    2    1   23 1     
    3    1   24 1     
    4    1   25 1     
    5    2    3 1     
    6    2   15 1     
    7    2   16 1     
    8    3    4 1     
    9    3    5 1     
   10    3   17 1     
   11    4   26 1     
   12    5    6 ar    
   13    5   14 ar    
   14    6    7 ar    
   15    6   18 1     
   16    7    8 ar    
   17    7   19 1     
   18    8    9 ar    
   19    8   20 1     
   20    9   10 1     
   21    9   14 ar    
   22   10   11 1     
   23   11   12 1     
   24   11   13 1     
   25   11   21 1     
   26   14   22 1     
@<TRIPOS>SUBSTRUCTURE
      1 ****           1
@<TRIPOS>SET
DONOR_HYDROGENS      STATIC     ATOMS    <user>   **** ""
4 23 24 25 26
ATOM$RED        STATIC     ATOMS    COLORGROUP SYSTEM
4 23 24 25 26
@<TRIPOS>COMMENT
> <Gold.Version>
2022.2.0

> <Gold.Id.Protein>
3pbl|protein|mol2

> <Gold.Protein.RotatedTorsions>
[ 1303 1298 1297 1294 ] final   26.77 input  179.99 | X-H torsion
[ 2461 2456 2455 2452 ] final -112.00 input   30.03 | X-H torsion
[ 2515 2510 2509 2506 ] final   56.37 input  -89.99 | X-H torsion
[ 3721 3712 3711 3710 ] final -161.96 input -179.91 | X-H torsion
[ 3841 3832 3831 3830 ] final -176.87 input -179.91 | X-H torsion
[ 3767 3762 3761 3758 ] final   26.79 input  -89.99 | X-H torsion
[ 2472 2467 2466 2463 ] final  -52.64 input  -89.97 | X-H torsion

> <Gold.Protein.ActiveResidues>
 VAL82   VAL86   LEU89   PHE106  VAL107  ASP110  VAL111  MET112  CYS114  THR115 
 CYS181  SER182  ILE183  PHE188  VAL189  ILE190  SER192  SER193  SER196  TRP342 
 PHE345  PHE346  HIS349  VAL350  TYR365  THR369  GLY372  TYR373 

> <Gold.Protein.RotatedAtoms>
    3.5974  -10.1555    4.3039 H   0  0  0  0  0  0  0  0  0  0  0  0  # atno 1303 bound_to 1298
    0.4953   -9.1157    7.9666 H   0  0  0  0  0  0  0  0  0  0  0  0  # atno 2461 bound_to 2456
   -3.6819   -5.1454    8.8561 H   0  0  0  0  0  0  0  0  0  0  0  0  # atno 2472 bound_to 2467
    2.1689   -7.4443    5.3954 H   0  0  0  0  0  0  0  0  0  0  0  0  # atno 2515 bound_to 2510
   -3.3386  -16.5376   13.8086 H   0  0  0  0  0  0  0  0  0  0  0  0  # atno 3721 bound_to 3712
   -5.0247  -23.0244   10.0632 H   0  0  0  0  0  0  0  0  0  0  0  0  # atno 3767 bound_to 3762
    2.9298  -20.0147    8.3971 H   0  0  0  0  0  0  0  0  0  0  0  0  # atno 3841 bound_to 3832
    3.8685   -8.5999    3.8880 LP  0  0  0  0  0  0  0  0  0  0  0  0  # atno 4297 bound_to 1298
    4.8965   -9.3657    4.8996 LP  0  0  0  0  0  0  0  0  0  0  0  0  # atno 4298 bound_to 1298
    2.0750   -8.7406    8.1432 LP  0  0  0  0  0  0  0  0  0  0  0  0  # atno 4299 bound_to 2456
    1.1672   -7.9519    7.0384 LP  0  0  0  0  0  0  0  0  0  0  0  0  # atno 4300 bound_to 2456
    2.8288   -8.5573    4.3996 LP  0  0  0  0  0  0  0  0  0  0  0  0  # atno 4301 bound_to 2510
    2.2992   -8.9980    5.8802 LP  0  0  0  0  0  0  0  0  0  0  0  0  # atno 4302 bound_to 2510
   -2.8505  -17.9182   13.1503 LP  0  0  0  0  0  0  0  0  0  0  0  0  # atno 4306 bound_to 3712
   -2.8227  -17.7152   14.7704 LP  0  0  0  0  0  0  0  0  0  0  0  0  # atno 4307 bound_to 3712
    2.4202  -21.1466    9.4145 LP  0  0  0  0  0  0  0  0  0  0  0  0  # atno 4314 bound_to 3832
    1.4247  -19.9387    8.9493 LP  0  0  0  0  0  0  0  0  0  0  0  0  # atno 4315 bound_to 3832
   -5.1900  -21.9166   11.2516 LP  0  0  0  0  0  0  0  0  0  0  0  0  # atno 4318 bound_to 3762
   -3.9128  -22.9342   11.2559 LP  0  0  0  0  0  0  0  0  0  0  0  0  # atno 4319 bound_to 3762
   -5.2726   -5.4117    9.1118 LP  0  0  0  0  0  0  0  0  0  0  0  0  # atno 4320 bound_to 2467
   -4.7622   -4.8364    7.6713 LP  0  0  0  0  0  0  0  0  0  0  0  0  # atno 4321 bound_to 2467

> <Gold.Score>
     Score     S(PLP)   S(hbond)     S(cho)   S(metal)  DE(clash)   DE(tors)     intcor
     50.14     -44.42       3.00       0.00       0.00       1.23       1.03       0.01

> <Gold.PLP.Fitness>
50.1422

> <Gold.PLP.PLP>
-44.4218

> <Gold.PLP.part.hbond>
-2.0000

> <Gold.PLP.part.metal>
0.0000

> <Gold.PLP.part.buried>
-3.9394

> <Gold.PLP.part.nonpolar>
-38.8681

> <Gold.PLP.part.repulsive>
0.0020

> <Gold.PLP.ligand.clash>
1.2296

> <Gold.PLP.ligand.torsion>
1.0315

> <Gold.PLP.Chemscore.Hbond>
3.0000

> <Gold.PLP.Chemscore.CHOScore>
0.0000

> <Gold.PLP.Chemscore.Metal>
0.0000

> <Gold.Chemscore.Hbonds>
donor molecule, donor type, donor heavy atom, donor atom, acceptor molecule, acceptor atom, score
      L1  H     1    25       P1  1227  2.00
      L1  H     4    26       P1  1227  1.00

> <Gold.PLP.Chemscore.Internal.Correction>
0.0130

