#       Name:                EN300-119689_i002
#       Creating user name   fsindt
#       Creation time:       Wed Mar  1 03:38:15 2023


#       File generated by GOLD software.
#

@<TRIPOS>MOLECULE
EN300-119689_i002|amine_1|mol2|7803|dock7
    26    26     1
SMALL
USER_CHARGES


@<TRIPOS>ATOM
      1 N1           0.1786 -17.9367   8.8562 N.4            1 <1>                1.0000
      2 C2          -0.3478 -16.6712   8.3277 C.3            1 <1>                0.0000
      3 C3          -0.1219 -15.5573   9.3519 C.3            1 <1>                0.0000
      4 O4           0.9604 -15.9150  10.2138 O.3            1 <1>                0.0000
      5 C5           0.2103 -14.2746   8.6341 C.ar           1 <1>                0.0000
      6 C6           1.0718 -14.2914   7.5530 C.ar           1 <1>                0.0000
      7 C7           1.3788 -13.1161   6.8921 C.ar           1 <1>                0.0000
      8 C8           0.8250 -11.9220   7.3110 C.ar           1 <1>                0.0000
      9 C9          -0.0403 -11.9026   8.3956 C.ar           1 <1>                0.0000
     10 O10         -0.5867 -10.7292   8.8094 O.3            1 <1>                0.0000
     11 C11         -1.8143 -10.8059   9.5369 C.3            1 <1>                0.0000
     12 F12         -1.5407 -11.0211  10.8919 F              1 <1>                0.0000
     13 F13         -2.5202  -9.6072   9.3883 F              1 <1>                0.0000
     14 C14         -0.3506 -13.0837   9.0534 C.ar           1 <1>                0.0000
     15 H15          0.1682 -16.4221   7.4004 H              1 <1>                0.0000
     16 H16         -1.4152 -16.7747   8.1329 H              1 <1>                0.0000
     17 H17         -1.0269 -15.4187   9.9435 H              1 <1>                0.0000
     18 H18          1.5061 -15.2239   7.2241 H              1 <1>                0.0000
     19 H19          2.0523 -13.1317   6.0480 H              1 <1>                0.0000
     20 H20          1.0656 -11.0043   6.7951 H              1 <1>                0.0000
     21 H21         -2.4139 -11.6307   9.1519 H              1 <1>                0.0000
     22 H22         -1.0239 -13.0711   9.8979 H              1 <1>                0.0000
     23 H23          0.4159 -18.5484   8.0898 H              1 <1>                0.0000
     24 H24          1.0030 -17.7537   9.4083 H              1 <1>                0.0000
     25 H25         -0.5219 -18.3773   9.4336 H              1 <1>                0.0000
     26 H26          1.7153 -16.3083   9.7547 H              1 <1>                0.0000
@<TRIPOS>BOND
    1    1    2 1     
    2    1   23 1     
    3    1   24 1     
    4    1   25 1     
    5    2    3 1     
    6    2   15 1     
    7    2   16 1     
    8    3    4 1     
    9    3    5 1     
   10    3   17 1     
   11    4   26 1     
   12    5    6 ar    
   13    5   14 ar    
   14    6    7 ar    
   15    6   18 1     
   16    7    8 ar    
   17    7   19 1     
   18    8    9 ar    
   19    8   20 1     
   20    9   10 1     
   21    9   14 ar    
   22   10   11 1     
   23   11   12 1     
   24   11   13 1     
   25   11   21 1     
   26   14   22 1     
@<TRIPOS>SUBSTRUCTURE
      1 ****           1
@<TRIPOS>SET
DONOR_HYDROGENS      STATIC     ATOMS    <user>   **** ""
4 23 24 25 26
ATOM$RED        STATIC     ATOMS    COLORGROUP SYSTEM
4 23 24 25 26
@<TRIPOS>COMMENT
> <Gold.Version>
2022.2.0

> <Gold.Id.Protein>
3pbl|protein|mol2

> <Gold.Protein.RotatedTorsions>
[ 1303 1298 1297 1294 ] final  -18.09 input  179.99 | X-H torsion
[ 2461 2456 2455 2452 ] final -118.96 input   30.03 | X-H torsion
[ 2515 2510 2509 2506 ] final -167.58 input  -89.99 | X-H torsion
[ 3721 3712 3711 3710 ] final  -17.68 input -179.91 | X-H torsion
[ 3841 3832 3831 3830 ] final   56.78 input -179.91 | X-H torsion
[ 3767 3762 3761 3758 ] final  146.05 input  -89.99 | X-H torsion
[ 2472 2467 2466 2463 ] final  -35.38 input  -89.97 | X-H torsion

> <Gold.Protein.ActiveResidues>
 VAL82   VAL86   LEU89   PHE106  VAL107  ASP110  VAL111  MET112  CYS114  THR115 
 CYS181  SER182  ILE183  PHE188  VAL189  ILE190  SER192  SER193  SER196  TRP342 
 PHE345  PHE346  HIS349  VAL350  TYR365  THR369  GLY372  TYR373 

> <Gold.Protein.RotatedAtoms>
    3.3311   -9.6159    3.9095 H   0  0  0  0  0  0  0  0  0  0  0  0  # atno 1303 bound_to 1298
    0.5644   -9.1672    8.0421 H   0  0  0  0  0  0  0  0  0  0  0  0  # atno 2461 bound_to 2456
   -3.6346   -5.0462    8.5954 H   0  0  0  0  0  0  0  0  0  0  0  0  # atno 2472 bound_to 2467
    2.4099   -9.1494    5.6956 H   0  0  0  0  0  0  0  0  0  0  0  0  # atno 2515 bound_to 2510
   -2.5432  -17.8237   14.4660 H   0  0  0  0  0  0  0  0  0  0  0  0  # atno 3721 bound_to 3712
   -3.9111  -22.9419   11.2468 H   0  0  0  0  0  0  0  0  0  0  0  0  # atno 3767 bound_to 3762
    2.4270  -20.9345    9.5320 H   0  0  0  0  0  0  0  0  0  0  0  0  # atno 3841 bound_to 3832
    4.4711   -8.5035    4.2694 LP  0  0  0  0  0  0  0  0  0  0  0  0  # atno 4297 bound_to 1298
    4.5603  -10.0018    4.9128 LP  0  0  0  0  0  0  0  0  0  0  0  0  # atno 4298 bound_to 1298
    2.1159   -8.6582    8.0751 LP  0  0  0  0  0  0  0  0  0  0  0  0  # atno 4299 bound_to 2456
    1.0573   -7.9830    7.0311 LP  0  0  0  0  0  0  0  0  0  0  0  0  # atno 4300 bound_to 2456
    2.0944   -7.5490    5.6251 LP  0  0  0  0  0  0  0  0  0  0  0  0  # atno 4301 bound_to 2510
    2.7925   -8.3004    4.3544 LP  0  0  0  0  0  0  0  0  0  0  0  0  # atno 4302 bound_to 2510
   -3.5235  -16.5821   14.1912 LP  0  0  0  0  0  0  0  0  0  0  0  0  # atno 4306 bound_to 3712
   -3.0680  -17.5665   12.9706 LP  0  0  0  0  0  0  0  0  0  0  0  0  # atno 4307 bound_to 3712
    1.4753  -19.8461    8.8351 LP  0  0  0  0  0  0  0  0  0  0  0  0  # atno 4314 bound_to 3832
    2.9505  -20.1766    8.2176 LP  0  0  0  0  0  0  0  0  0  0  0  0  # atno 4315 bound_to 3832
   -5.0344  -23.0173   10.0639 LP  0  0  0  0  0  0  0  0  0  0  0  0  # atno 4318 bound_to 3762
   -5.1815  -21.9160   11.2606 LP  0  0  0  0  0  0  0  0  0  0  0  0  # atno 4319 bound_to 3762
   -5.0560   -5.4519    9.2893 LP  0  0  0  0  0  0  0  0  0  0  0  0  # atno 4320 bound_to 2467
   -5.0261   -4.8954    7.7544 LP  0  0  0  0  0  0  0  0  0  0  0  0  # atno 4321 bound_to 2467

> <Gold.Score>
     Score     S(PLP)   S(hbond)     S(cho)   S(metal)  DE(clash)   DE(tors)     intcor
     57.25     -48.48       3.98       0.00       0.00       0.00       1.60       0.05

> <Gold.PLP.Fitness>
57.2497

> <Gold.PLP.PLP>
-48.4790

> <Gold.PLP.part.hbond>
-2.9629

> <Gold.PLP.part.metal>
0.0000

> <Gold.PLP.part.buried>
-4.9804

> <Gold.PLP.part.nonpolar>
-41.5942

> <Gold.PLP.part.repulsive>
0.0000

> <Gold.PLP.ligand.clash>
0.0000

> <Gold.PLP.ligand.torsion>
1.6042

> <Gold.PLP.Chemscore.Hbond>
3.9760

> <Gold.PLP.Chemscore.CHOScore>
0.0000

> <Gold.PLP.Chemscore.Metal>
0.0000

> <Gold.Chemscore.Hbonds>
donor molecule, donor type, donor heavy atom, donor atom, acceptor molecule, acceptor atom, score
      L1  H     1    24       P1  1227  2.00
      L1  H     4    26       P1  1227  0.98
      P1  H  2456  2461       L1    10  1.00

> <Gold.PLP.Chemscore.Internal.Correction>
0.0511

