#       Name:                EN300-119689_i002
#       Creating user name   fsindt
#       Creation time:       Wed Mar  1 03:38:26 2023


#       File generated by GOLD software.
#

@<TRIPOS>MOLECULE
EN300-119689_i002|amine_1|mol2|7803|dock19
    26    26     1
SMALL
USER_CHARGES


@<TRIPOS>ATOM
      1 N1          -0.6909 -16.1112  12.7847 N.4            1 <1>                1.0000
      2 C2          -0.4002 -14.9502  11.9329 C.3            1 <1>                0.0000
      3 C3           0.5756 -15.3599  10.8279 C.3            1 <1>                0.0000
      4 O4           0.1780 -16.6204  10.2846 O.3            1 <1>                0.0000
      5 C5           0.5671 -14.3183   9.7389 C.ar           1 <1>                0.0000
      6 C6           0.9145 -14.6670   8.4470 C.ar           1 <1>                0.0000
      7 C7           0.9077 -13.7135   7.4454 C.ar           1 <1>                0.0000
      8 C8           0.5538 -12.4098   7.7336 C.ar           1 <1>                0.0000
      9 C9           0.2042 -12.0575   9.0295 C.ar           1 <1>                0.0000
     10 O10         -0.1448 -10.7756   9.3155 O.3            1 <1>                0.0000
     11 C11         -0.9738 -10.5692  10.4611 C.3            1 <1>                0.0000
     12 F12         -0.3860  -9.6128  11.2959 F              1 <1>                0.0000
     13 F13         -2.2331 -10.1187  10.0504 F              1 <1>                0.0000
     14 C14          0.2067 -13.0169  10.0312 C.ar           1 <1>                0.0000
     15 H15         -1.3252 -14.5877  11.4847 H              1 <1>                0.0000
     16 H16          0.0454 -14.1594  12.5363 H              1 <1>                0.0000
     17 H17          1.5800 -15.4436  11.2428 H              1 <1>                0.0000
     18 H18          1.1919 -15.6856   8.2196 H              1 <1>                0.0000
     19 H19          1.1798 -13.9882   6.4370 H              1 <1>                0.0000
     20 H20          0.5494 -11.6654   6.9513 H              1 <1>                0.0000
     21 H21         -1.0831 -11.5077  11.0045 H              1 <1>                0.0000
     22 H22         -0.0649 -12.7451  11.0405 H              1 <1>                0.0000
     23 H23         -0.2780 -15.9724  13.6948 H              1 <1>                0.0000
     24 H24         -1.6897 -16.2161  12.8809 H              1 <1>                0.0000
     25 H25         -0.3044 -16.9426  12.3634 H              1 <1>                0.0000
     26 H26          0.9006 -17.1199   9.8802 H              1 <1>                0.0000
@<TRIPOS>BOND
    1    1    2 1     
    2    1   23 1     
    3    1   24 1     
    4    1   25 1     
    5    2    3 1     
    6    2   15 1     
    7    2   16 1     
    8    3    4 1     
    9    3    5 1     
   10    3   17 1     
   11    4   26 1     
   12    5    6 ar    
   13    5   14 ar    
   14    6    7 ar    
   15    6   18 1     
   16    7    8 ar    
   17    7   19 1     
   18    8    9 ar    
   19    8   20 1     
   20    9   10 1     
   21    9   14 ar    
   22   10   11 1     
   23   11   12 1     
   24   11   13 1     
   25   11   21 1     
   26   14   22 1     
@<TRIPOS>SUBSTRUCTURE
      1 ****           1
@<TRIPOS>SET
DONOR_HYDROGENS      STATIC     ATOMS    <user>   **** ""
4 23 24 25 26
ATOM$RED        STATIC     ATOMS    COLORGROUP SYSTEM
4 23 24 25 26
@<TRIPOS>COMMENT
> <Gold.Version>
2022.2.0

> <Gold.Id.Protein>
3pbl|protein|mol2

> <Gold.Protein.RotatedTorsions>
[ 1303 1298 1297 1294 ] final   -8.15 input  179.99 | X-H torsion
[ 2461 2456 2455 2452 ] final -132.84 input   30.03 | X-H torsion
[ 2515 2510 2509 2506 ] final  -70.09 input  -89.99 | X-H torsion
[ 3721 3712 3711 3710 ] final  -49.51 input -179.91 | X-H torsion
[ 3841 3832 3831 3830 ] final  123.80 input -179.91 | X-H torsion
[ 3767 3762 3761 3758 ] final   64.18 input  -89.99 | X-H torsion
[ 2472 2467 2466 2463 ] final   41.43 input  -89.97 | X-H torsion

> <Gold.Protein.ActiveResidues>
 VAL82   VAL86   LEU89   PHE106  VAL107  ASP110  VAL111  MET112  CYS114  THR115 
 CYS181  SER182  ILE183  PHE188  VAL189  ILE190  SER192  SER193  SER196  TRP342 
 PHE345  PHE346  HIS349  VAL350  TYR365  THR369  GLY372  TYR373 

> <Gold.Protein.RotatedAtoms>
    3.3519   -9.7616    3.9805 H   0  0  0  0  0  0  0  0  0  0  0  0  # atno 1303 bound_to 1298
    0.7310   -9.2443    8.1772 H   0  0  0  0  0  0  0  0  0  0  0  0  # atno 2461 bound_to 2456
   -4.3416   -4.7993    7.6946 H   0  0  0  0  0  0  0  0  0  0  0  0  # atno 2472 bound_to 2467
    2.8347   -8.6566    4.4367 H   0  0  0  0  0  0  0  0  0  0  0  0  # atno 2515 bound_to 2510
   -2.7250  -17.4668   14.7216 H   0  0  0  0  0  0  0  0  0  0  0  0  # atno 3721 bound_to 3712
   -4.5119  -23.2991   10.2278 H   0  0  0  0  0  0  0  0  0  0  0  0  # atno 3767 bound_to 3762
    3.0983  -20.6898    8.8972 H   0  0  0  0  0  0  0  0  0  0  0  0  # atno 3841 bound_to 3832
    4.3433   -8.4782    4.1708 LP  0  0  0  0  0  0  0  0  0  0  0  0  # atno 4297 bound_to 1298
    4.6673   -9.8814    4.9405 LP  0  0  0  0  0  0  0  0  0  0  0  0  # atno 4298 bound_to 1298
    2.1587   -8.4925    7.9246 LP  0  0  0  0  0  0  0  0  0  0  0  0  # atno 4299 bound_to 2456
    0.8479   -8.0716    7.0465 LP  0  0  0  0  0  0  0  0  0  0  0  0  # atno 4300 bound_to 2456
    2.2571   -8.9213    5.9407 LP  0  0  0  0  0  0  0  0  0  0  0  0  # atno 4301 bound_to 2510
    2.2047   -7.4210    5.2982 LP  0  0  0  0  0  0  0  0  0  0  0  0  # atno 4302 bound_to 2510
   -3.5638  -16.5929   13.6678 LP  0  0  0  0  0  0  0  0  0  0  0  0  # atno 4306 bound_to 3712
   -2.8178  -17.9677   13.1990 LP  0  0  0  0  0  0  0  0  0  0  0  0  # atno 4307 bound_to 3712
    1.6064  -20.6666    9.4886 LP  0  0  0  0  0  0  0  0  0  0  0  0  # atno 4314 bound_to 3832
    2.0439  -19.6388    8.2974 LP  0  0  0  0  0  0  0  0  0  0  0  0  # atno 4315 bound_to 3832
   -5.4811  -22.0940   10.7525 LP  0  0  0  0  0  0  0  0  0  0  0  0  # atno 4318 bound_to 3762
   -4.1343  -22.4821   11.5905 LP  0  0  0  0  0  0  0  0  0  0  0  0  # atno 4319 bound_to 3762
   -3.9004   -5.2885    9.1887 LP  0  0  0  0  0  0  0  0  0  0  0  0  # atno 4320 bound_to 2467
   -5.4748   -5.3056    8.7557 LP  0  0  0  0  0  0  0  0  0  0  0  0  # atno 4321 bound_to 2467

> <Gold.Score>
     Score     S(PLP)   S(hbond)     S(cho)   S(metal)  DE(clash)   DE(tors)     intcor
     50.13     -47.74       2.06       0.00       0.00       0.00       1.90       0.01

> <Gold.PLP.Fitness>
50.1339

> <Gold.PLP.PLP>
-47.7386

> <Gold.PLP.part.hbond>
-2.6181

> <Gold.PLP.part.metal>
0.0000

> <Gold.PLP.part.buried>
-4.3753

> <Gold.PLP.part.nonpolar>
-41.8496

> <Gold.PLP.part.repulsive>
0.0539

> <Gold.PLP.ligand.clash>
0.0000

> <Gold.PLP.ligand.torsion>
1.8998

> <Gold.PLP.Chemscore.Hbond>
2.0606

> <Gold.PLP.Chemscore.CHOScore>
0.0000

> <Gold.PLP.Chemscore.Metal>
0.0000

> <Gold.Chemscore.Hbonds>
donor molecule, donor type, donor heavy atom, donor atom, acceptor molecule, acceptor atom, score
      L1  H     1    24       P1  3712  0.06
      L1  H     4    26       P1  1227  1.00
      P1  H  2456  2461       L1    10  1.00

> <Gold.PLP.Chemscore.Internal.Correction>
0.0130

