#       Name:                EN300-119689_i002
#       Creating user name   fsindt
#       Creation time:       Wed Mar  1 03:38:13 2023


#       File generated by GOLD software.
#

@<TRIPOS>MOLECULE
EN300-119689_i002|amine_1|mol2|7803|dock5
    26    26     1
SMALL
USER_CHARGES


@<TRIPOS>ATOM
      1 N1           0.9246 -18.0391  11.9811 N.4            1 <1>                1.0000
      2 C2          -0.0003 -16.9366  11.6857 C.3            1 <1>                0.0000
      3 C3           0.6734 -15.6032  12.0163 C.3            1 <1>                0.0000
      4 O4           2.0924 -15.7557  11.9444 O.3            1 <1>                0.0000
      5 C5           0.2297 -14.5573  11.0263 C.ar           1 <1>                0.0000
      6 C6           0.7753 -14.5328   9.7563 C.ar           1 <1>                0.0000
      7 C7           0.3703 -13.5742   8.8456 C.ar           1 <1>                0.0000
      8 C8          -0.5808 -12.6385   9.2029 C.ar           1 <1>                0.0000
      9 C9          -1.1302 -12.6612  10.4770 C.ar           1 <1>                0.0000
     10 O10         -2.0664 -11.7419  10.8309 O.3            1 <1>                0.0000
     11 C11         -2.0727 -10.5102  10.1062 C.3            1 <1>                0.0000
     12 F12         -3.3713  -9.9906  10.0810 F              1 <1>                0.0000
     13 F13         -1.2170  -9.5969  10.7315 F              1 <1>                0.0000
     14 C14         -0.7261 -13.6270  11.3868 C.ar           1 <1>                0.0000
     15 H15         -0.2649 -16.9577  10.6285 H              1 <1>                0.0000
     16 H16         -0.9019 -17.0473  12.2881 H              1 <1>                0.0000
     17 H17          0.3918 -15.2936  13.0228 H              1 <1>                0.0000
     18 H18          1.5193 -15.2634   9.4750 H              1 <1>                0.0000
     19 H19          0.7982 -13.5570   7.8541 H              1 <1>                0.0000
     20 H20         -0.8962 -11.8896   8.4916 H              1 <1>                0.0000
     21 H21         -1.7323 -10.6872   9.0860 H              1 <1>                0.0000
     22 H22         -1.1523 -13.6467  12.3791 H              1 <1>                0.0000
     23 H23          1.5381 -18.1835  11.1932 H              1 <1>                0.0000
     24 H24          1.4725 -17.8091  12.7965 H              1 <1>                0.0000
     25 H25          0.3982 -18.8818  12.1564 H              1 <1>                0.0000
     26 H26          2.3940 -16.2792  11.1892 H              1 <1>                0.0000
@<TRIPOS>BOND
    1    1    2 1     
    2    1   23 1     
    3    1   24 1     
    4    1   25 1     
    5    2    3 1     
    6    2   15 1     
    7    2   16 1     
    8    3    4 1     
    9    3    5 1     
   10    3   17 1     
   11    4   26 1     
   12    5    6 ar    
   13    5   14 ar    
   14    6    7 ar    
   15    6   18 1     
   16    7    8 ar    
   17    7   19 1     
   18    8    9 ar    
   19    8   20 1     
   20    9   10 1     
   21    9   14 ar    
   22   10   11 1     
   23   11   12 1     
   24   11   13 1     
   25   11   21 1     
   26   14   22 1     
@<TRIPOS>SUBSTRUCTURE
      1 ****           1
@<TRIPOS>SET
DONOR_HYDROGENS      STATIC     ATOMS    <user>   **** ""
4 23 24 25 26
ATOM$RED        STATIC     ATOMS    COLORGROUP SYSTEM
4 23 24 25 26
@<TRIPOS>COMMENT
> <Gold.Version>
2022.2.0

> <Gold.Id.Protein>
3pbl|protein|mol2

> <Gold.Protein.RotatedTorsions>
[ 1303 1298 1297 1294 ] final  125.13 input  179.99 | X-H torsion
[ 2461 2456 2455 2452 ] final   16.56 input   30.03 | X-H torsion
[ 2515 2510 2509 2506 ] final  105.71 input  -89.99 | X-H torsion
[ 3721 3712 3711 3710 ] final   29.53 input -179.91 | X-H torsion
[ 3841 3832 3831 3830 ] final  -86.08 input -179.91 | X-H torsion
[ 3767 3762 3761 3758 ] final -173.62 input  -89.99 | X-H torsion
[ 2472 2467 2466 2463 ] final -145.72 input  -89.97 | X-H torsion

> <Gold.Protein.ActiveResidues>
 VAL82   VAL86   LEU89   PHE106  VAL107  ASP110  VAL111  MET112  CYS114  THR115 
 CYS181  SER182  ILE183  PHE188  VAL189  ILE190  SER192  SER193  SER196  TRP342 
 PHE345  PHE346  HIS349  VAL350  TYR365  THR369  GLY372  TYR373 

> <Gold.Protein.RotatedAtoms>
    4.7837   -9.6974    4.9506 H   0  0  0  0  0  0  0  0  0  0  0  0  # atno 1303 bound_to 1298
    1.3038   -7.9267    7.0610 H   0  0  0  0  0  0  0  0  0  0  0  0  # atno 2461 bound_to 2456
   -4.9143   -5.4626    9.3601 H   0  0  0  0  0  0  0  0  0  0  0  0  # atno 2472 bound_to 2467
    2.0288   -7.9469    5.9843 H   0  0  0  0  0  0  0  0  0  0  0  0  # atno 2515 bound_to 2510
   -2.4817  -18.0332   13.8076 H   0  0  0  0  0  0  0  0  0  0  0  0  # atno 3721 bound_to 3712
   -4.1557  -22.4549   11.6013 H   0  0  0  0  0  0  0  0  0  0  0  0  # atno 3767 bound_to 3762
    1.8116  -19.6316    8.7465 H   0  0  0  0  0  0  0  0  0  0  0  0  # atno 3841 bound_to 3832
    3.4155   -9.9375    4.0923 LP  0  0  0  0  0  0  0  0  0  0  0  0  # atno 4297 bound_to 1298
    4.1628   -8.4862    4.0485 LP  0  0  0  0  0  0  0  0  0  0  0  0  # atno 4298 bound_to 1298
    0.4259   -9.0422    7.8688 LP  0  0  0  0  0  0  0  0  0  0  0  0  # atno 4299 bound_to 2456
    2.0081   -8.8391    8.2182 LP  0  0  0  0  0  0  0  0  0  0  0  0  # atno 4300 bound_to 2456
    2.6334   -7.7985    4.4749 LP  0  0  0  0  0  0  0  0  0  0  0  0  # atno 4301 bound_to 2510
    2.6347   -9.2538    5.2157 LP  0  0  0  0  0  0  0  0  0  0  0  0  # atno 4302 bound_to 2510
   -3.2361  -16.9936   14.7709 LP  0  0  0  0  0  0  0  0  0  0  0  0  # atno 4306 bound_to 3712
   -3.4263  -16.9131   13.1511 LP  0  0  0  0  0  0  0  0  0  0  0  0  # atno 4307 bound_to 3712
    3.1109  -20.5164    8.4224 LP  0  0  0  0  0  0  0  0  0  0  0  0  # atno 4314 bound_to 3832
    2.0257  -21.0115    9.5377 LP  0  0  0  0  0  0  0  0  0  0  0  0  # atno 4315 bound_to 3832
   -4.4826  -23.3076   10.2475 LP  0  0  0  0  0  0  0  0  0  0  0  0  # atno 4318 bound_to 3762
   -5.4889  -22.1125   10.7225 LP  0  0  0  0  0  0  0  0  0  0  0  0  # atno 4319 bound_to 3762
   -5.1575   -4.9382    7.8329 LP  0  0  0  0  0  0  0  0  0  0  0  0  # atno 4320 bound_to 2467
   -3.6451   -4.9928    8.4463 LP  0  0  0  0  0  0  0  0  0  0  0  0  # atno 4321 bound_to 2467

> <Gold.Score>
     Score     S(PLP)   S(hbond)     S(cho)   S(metal)  DE(clash)   DE(tors)     intcor
     51.74     -45.97       3.00       0.00       0.00       0.00       1.64       0.06

> <Gold.PLP.Fitness>
51.7384

> <Gold.PLP.PLP>
-45.9657

> <Gold.PLP.part.hbond>
-2.0000

> <Gold.PLP.part.metal>
0.0000

> <Gold.PLP.part.buried>
-5.1104

> <Gold.PLP.part.nonpolar>
-40.0462

> <Gold.PLP.part.repulsive>
0.0350

> <Gold.PLP.ligand.clash>
0.0000

> <Gold.PLP.ligand.torsion>
1.6413

> <Gold.PLP.Chemscore.Hbond>
3.0000

> <Gold.PLP.Chemscore.CHOScore>
0.0000

> <Gold.PLP.Chemscore.Metal>
0.0000

> <Gold.Chemscore.Hbonds>
donor molecule, donor type, donor heavy atom, donor atom, acceptor molecule, acceptor atom, score
      L1  H     1    23       P1  1227  2.00
      L1  H     4    26       P1  1227  1.00

> <Gold.PLP.Chemscore.Internal.Correction>
0.0553

