#       Name:                EN300-119689_i002
#       Creating user name   fsindt
#       Creation time:       Wed Mar  1 03:38:22 2023


#       File generated by GOLD software.
#

@<TRIPOS>MOLECULE
EN300-119689_i002|amine_1|mol2|7803|dock14
    26    26     1
SMALL
USER_CHARGES


@<TRIPOS>ATOM
      1 N1           1.5312 -16.3835  12.1035 N.4            1 <1>                1.0000
      2 C2           0.7168 -15.3002  11.5368 C.3            1 <1>                0.0000
      3 C3           1.0561 -15.1287  10.0548 C.3            1 <1>                0.0000
      4 O4           0.4998 -16.2142   9.3101 O.3            1 <1>                0.0000
      5 C5           0.4801 -13.8291   9.5547 C.ar           1 <1>                0.0000
      6 C6           0.9415 -13.2782   8.3736 C.ar           1 <1>                0.0000
      7 C7           0.4151 -12.0857   7.9121 C.ar           1 <1>                0.0000
      8 C8          -0.5735 -11.4418   8.6305 C.ar           1 <1>                0.0000
      9 C9          -1.0385 -11.9929   9.8160 C.ar           1 <1>                0.0000
     10 O10         -2.0113 -11.3616  10.5245 O.3            1 <1>                0.0000
     11 C11         -3.1290 -10.8609   9.7881 C.3            1 <1>                0.0000
     12 F12         -4.2464 -10.7908  10.6268 F              1 <1>                0.0000
     13 F13         -2.8315  -9.5839   9.2999 F              1 <1>                0.0000
     14 C14         -0.5125 -13.1919  10.2740 C.ar           1 <1>                0.0000
     15 H15         -0.3397 -15.5470  11.6414 H              1 <1>                0.0000
     16 H16          0.9272 -14.3716  12.0675 H              1 <1>                0.0000
     17 H17          2.1388 -15.1188   9.9287 H              1 <1>                0.0000
     18 H18          1.7146 -13.7799   7.8106 H              1 <1>                0.0000
     19 H19          0.7774 -11.6572   6.9893 H              1 <1>                0.0000
     20 H20         -0.9838 -10.5101   8.2701 H              1 <1>                0.0000
     21 H21         -3.3426 -11.5283   8.9533 H              1 <1>                0.0000
     22 H22         -0.8729 -13.6228  11.1965 H              1 <1>                0.0000
     23 H23          1.7839 -17.0318  11.3728 H              1 <1>                0.0000
     24 H24          2.3677 -15.9962  12.5137 H              1 <1>                0.0000
     25 H25          1.0013 -16.8666  12.8133 H              1 <1>                0.0000
     26 H26          1.1118 -16.9499   9.1706 H              1 <1>                0.0000
@<TRIPOS>BOND
    1    1    2 1     
    2    1   23 1     
    3    1   24 1     
    4    1   25 1     
    5    2    3 1     
    6    2   15 1     
    7    2   16 1     
    8    3    4 1     
    9    3    5 1     
   10    3   17 1     
   11    4   26 1     
   12    5    6 ar    
   13    5   14 ar    
   14    6    7 ar    
   15    6   18 1     
   16    7    8 ar    
   17    7   19 1     
   18    8    9 ar    
   19    8   20 1     
   20    9   10 1     
   21    9   14 ar    
   22   10   11 1     
   23   11   12 1     
   24   11   13 1     
   25   11   21 1     
   26   14   22 1     
@<TRIPOS>SUBSTRUCTURE
      1 ****           1
@<TRIPOS>SET
DONOR_HYDROGENS      STATIC     ATOMS    <user>   **** ""
4 23 24 25 26
ATOM$RED        STATIC     ATOMS    COLORGROUP SYSTEM
4 23 24 25 26
@<TRIPOS>COMMENT
> <Gold.Version>
2022.2.0

> <Gold.Id.Protein>
3pbl|protein|mol2

> <Gold.Protein.RotatedTorsions>
[ 1303 1298 1297 1294 ] final  -16.46 input  179.99 | X-H torsion
[ 2461 2456 2455 2452 ] final -150.68 input   30.03 | X-H torsion
[ 2515 2510 2509 2506 ] final  -85.93 input  -89.99 | X-H torsion
[ 3721 3712 3711 3710 ] final   27.21 input -179.91 | X-H torsion
[ 3841 3832 3831 3830 ] final  144.58 input -179.91 | X-H torsion
[ 3767 3762 3761 3758 ] final  -57.79 input  -89.99 | X-H torsion
[ 2472 2467 2466 2463 ] final  -85.08 input  -89.97 | X-H torsion

> <Gold.Protein.ActiveResidues>
 VAL82   VAL86   LEU89   PHE106  VAL107  ASP110  VAL111  MET112  CYS114  THR115 
 CYS181  SER182  ILE183  PHE188  VAL189  ILE190  SER192  SER193  SER196  TRP342 
 PHE345  PHE346  HIS349  VAL350  TYR365  THR369  GLY372  TYR373 

> <Gold.Protein.RotatedAtoms>
    3.3329   -9.6405    3.9203 H   0  0  0  0  0  0  0  0  0  0  0  0  # atno 1303 bound_to 1298
    0.9877   -9.2879    8.3104 H   0  0  0  0  0  0  0  0  0  0  0  0  # atno 2461 bound_to 2456
   -3.9788   -5.3214    9.2539 H   0  0  0  0  0  0  0  0  0  0  0  0  # atno 2472 bound_to 2467
    2.8277   -8.8807    4.5679 H   0  0  0  0  0  0  0  0  0  0  0  0  # atno 2515 bound_to 2510
   -2.4780  -18.0343   13.8425 H   0  0  0  0  0  0  0  0  0  0  0  0  # atno 3721 bound_to 3712
   -5.4729  -22.0775   10.7792 H   0  0  0  0  0  0  0  0  0  0  0  0  # atno 3767 bound_to 3762
    3.1317  -20.4691    8.6789 H   0  0  0  0  0  0  0  0  0  0  0  0  # atno 3841 bound_to 3832
    4.4507   -8.4975    4.2529 LP  0  0  0  0  0  0  0  0  0  0  0  0  # atno 4297 bound_to 1298
    4.5789   -9.9832    4.9185 LP  0  0  0  0  0  0  0  0  0  0  0  0  # atno 4298 bound_to 1298
    2.1355   -8.2904    7.7146 LP  0  0  0  0  0  0  0  0  0  0  0  0  # atno 4299 bound_to 2456
    0.6145   -8.2301    7.1233 LP  0  0  0  0  0  0  0  0  0  0  0  0  # atno 4300 bound_to 2456
    2.1645   -8.7043    6.0494 LP  0  0  0  0  0  0  0  0  0  0  0  0  # atno 4301 bound_to 2510
    2.3043   -7.4139    5.0583 LP  0  0  0  0  0  0  0  0  0  0  0  0  # atno 4302 bound_to 2510
   -3.2545  -16.9642   14.7534 LP  0  0  0  0  0  0  0  0  0  0  0  0  # atno 4306 bound_to 3712
   -3.4123  -16.9412   13.1282 LP  0  0  0  0  0  0  0  0  0  0  0  0  # atno 4307 bound_to 3712
    1.8526  -20.9017    9.5466 LP  0  0  0  0  0  0  0  0  0  0  0  0  # atno 4314 bound_to 3832
    1.7590  -19.6587    8.4916 LP  0  0  0  0  0  0  0  0  0  0  0  0  # atno 4315 bound_to 3832
   -4.1156  -22.5060   11.5797 LP  0  0  0  0  0  0  0  0  0  0  0  0  # atno 4318 bound_to 3762
   -4.5392  -23.2914   10.2121 LP  0  0  0  0  0  0  0  0  0  0  0  0  # atno 4319 bound_to 3762
   -5.4979   -5.2725    8.6567 LP  0  0  0  0  0  0  0  0  0  0  0  0  # atno 4320 bound_to 2467
   -4.2401   -4.7997    7.7287 LP  0  0  0  0  0  0  0  0  0  0  0  0  # atno 4321 bound_to 2467

> <Gold.Score>
     Score     S(PLP)   S(hbond)     S(cho)   S(metal)  DE(clash)   DE(tors)     intcor
     52.41     -45.91       2.88       0.00       0.00       0.09       1.04       0.02

> <Gold.PLP.Fitness>
52.4101

> <Gold.PLP.PLP>
-45.9149

> <Gold.PLP.part.hbond>
-1.9645

> <Gold.PLP.part.metal>
0.0000

> <Gold.PLP.part.buried>
-2.3950

> <Gold.PLP.part.nonpolar>
-42.9869

> <Gold.PLP.part.repulsive>
0.0172

> <Gold.PLP.ligand.clash>
0.0853

> <Gold.PLP.ligand.torsion>
1.0384

> <Gold.PLP.Chemscore.Hbond>
2.8800

> <Gold.PLP.Chemscore.CHOScore>
0.0000

> <Gold.PLP.Chemscore.Metal>
0.0000

> <Gold.Chemscore.Hbonds>
donor molecule, donor type, donor heavy atom, donor atom, acceptor molecule, acceptor atom, score
      L1  H     1    23       P1  1227  2.00
      L1  H     4    26       P1  1227  0.88

> <Gold.PLP.Chemscore.Internal.Correction>
0.0173

