#       Name:                EN300-119689_i002
#       Creating user name   fsindt
#       Creation time:       Wed Mar  1 03:38:27 2023


#       File generated by GOLD software.
#

@<TRIPOS>MOLECULE
EN300-119689_i002|amine_1|mol2|7803|dock20
    26    26     1
SMALL
USER_CHARGES


@<TRIPOS>ATOM
      1 N1          -0.0984 -16.9329   9.9221 N.4            1 <1>                1.0000
      2 C2          -0.3535 -16.6683  11.3443 C.3            1 <1>                0.0000
      3 C3           0.4214 -15.4225  11.7785 C.3            1 <1>                0.0000
      4 O4           1.7928 -15.5590  11.4007 O.3            1 <1>                0.0000
      5 C5          -0.1657 -14.2071  11.1086 C.ar           1 <1>                0.0000
      6 C6          -0.9923 -13.3578  11.8203 C.ar           1 <1>                0.0000
      7 C7          -1.5327 -12.2416  11.2085 C.ar           1 <1>                0.0000
      8 C8          -1.2476 -11.9725   9.8840 C.ar           1 <1>                0.0000
      9 C9          -0.4178 -12.8232   9.1675 C.ar           1 <1>                0.0000
     10 O10         -0.1354 -12.5604   7.8644 O.3            1 <1>                0.0000
     11 C11          1.0946 -13.0754   7.3505 C.3            1 <1>                0.0000
     12 F12          0.9010 -14.3873   6.9049 F              1 <1>                0.0000
     13 F13          1.5238 -12.2790   6.2833 F              1 <1>                0.0000
     14 C14          0.1272 -13.9392   9.7851 C.ar           1 <1>                0.0000
     15 H15         -1.4201 -16.5045  11.4978 H              1 <1>                0.0000
     16 H16         -0.0284 -17.5234  11.9371 H              1 <1>                0.0000
     17 H17          0.3521 -15.3103  12.8605 H              1 <1>                0.0000
     18 H18         -1.2168 -13.5666  12.8559 H              1 <1>                0.0000
     19 H19         -2.1785 -11.5798  11.7665 H              1 <1>                0.0000
     20 H20         -1.6705 -11.1011   9.4063 H              1 <1>                0.0000
     21 H21          1.8491 -13.0664   8.1370 H              1 <1>                0.0000
     22 H22          0.7733 -14.6028   9.2296 H              1 <1>                0.0000
     23 H23         -0.3688 -17.8799   9.7024 H              1 <1>                0.0000
     24 H24         -0.6352 -16.2906   9.3589 H              1 <1>                0.0000
     25 H25          0.8842 -16.8102   9.7281 H              1 <1>                0.0000
     26 H26          2.0082 -16.4140  11.0036 H              1 <1>                0.0000
@<TRIPOS>BOND
    1    1    2 1     
    2    1   23 1     
    3    1   24 1     
    4    1   25 1     
    5    2    3 1     
    6    2   15 1     
    7    2   16 1     
    8    3    4 1     
    9    3    5 1     
   10    3   17 1     
   11    4   26 1     
   12    5    6 ar    
   13    5   14 ar    
   14    6    7 ar    
   15    6   18 1     
   16    7    8 ar    
   17    7   19 1     
   18    8    9 ar    
   19    8   20 1     
   20    9   10 1     
   21    9   14 ar    
   22   10   11 1     
   23   11   12 1     
   24   11   13 1     
   25   11   21 1     
   26   14   22 1     
@<TRIPOS>SUBSTRUCTURE
      1 ****           1
@<TRIPOS>SET
DONOR_HYDROGENS      STATIC     ATOMS    <user>   **** ""
4 23 24 25 26
ATOM$RED        STATIC     ATOMS    COLORGROUP SYSTEM
4 23 24 25 26
@<TRIPOS>COMMENT
> <Gold.Version>
2022.2.0

> <Gold.Id.Protein>
3pbl|protein|mol2

> <Gold.Protein.RotatedTorsions>
[ 1303 1298 1297 1294 ] final  -67.21 input  179.99 | X-H torsion
[ 2461 2456 2455 2452 ] final -166.40 input   30.03 | X-H torsion
[ 2515 2510 2509 2506 ] final  -75.21 input  -89.99 | X-H torsion
[ 3721 3712 3711 3710 ] final   56.00 input -179.91 | X-H torsion
[ 3841 3832 3831 3830 ] final   59.33 input -179.91 | X-H torsion
[ 3767 3762 3761 3758 ] final   11.51 input  -89.99 | X-H torsion
[ 2472 2467 2466 2463 ] final  105.25 input  -89.97 | X-H torsion

> <Gold.Protein.ActiveResidues>
 VAL82   VAL86   LEU89   PHE106  VAL107  ASP110  VAL111  MET112  CYS114  THR115 
 CYS181  SER182  ILE183  PHE188  VAL189  ILE190  SER192  SER193  SER196  TRP342 
 PHE345  PHE346  HIS349  VAL350  TYR365  THR369  GLY372  TYR373 

> <Gold.Protein.RotatedAtoms>
    3.5649   -8.8783    3.7858 H   0  0  0  0  0  0  0  0  0  0  0  0  # atno 1303 bound_to 1298
    1.2353   -9.2717    8.3807 H   0  0  0  0  0  0  0  0  0  0  0  0  # atno 2461 bound_to 2456
   -5.2862   -4.9939    7.9461 H   0  0  0  0  0  0  0  0  0  0  0  0  # atno 2472 bound_to 2467
    2.8358   -8.7326    4.4729 H   0  0  0  0  0  0  0  0  0  0  0  0  # atno 2515 bound_to 2510
   -2.5710  -17.9354   13.4336 H   0  0  0  0  0  0  0  0  0  0  0  0  # atno 3721 bound_to 3712
   -5.2078  -22.8555   10.0906 H   0  0  0  0  0  0  0  0  0  0  0  0  # atno 3767 bound_to 3762
    2.4618  -20.9417    9.5169 H   0  0  0  0  0  0  0  0  0  0  0  0  # atno 3841 bound_to 3832
    4.8865   -8.9727    4.7402 LP  0  0  0  0  0  0  0  0  0  0  0  0  # atno 4297 bound_to 1298
    3.9109  -10.2705    4.5658 LP  0  0  0  0  0  0  0  0  0  0  0  0  # atno 4298 bound_to 1298
    2.0439   -8.1367    7.5290 LP  0  0  0  0  0  0  0  0  0  0  0  0  # atno 4299 bound_to 2456
    0.4586   -8.3999    7.2386 LP  0  0  0  0  0  0  0  0  0  0  0  0  # atno 4300 bound_to 2456
    2.2254   -8.8554    5.9823 LP  0  0  0  0  0  0  0  0  0  0  0  0  # atno 4301 bound_to 2510
    2.2353   -7.4110    5.2204 LP  0  0  0  0  0  0  0  0  0  0  0  0  # atno 4302 bound_to 2510
   -3.0170  -17.3615   14.8653 LP  0  0  0  0  0  0  0  0  0  0  0  0  # atno 4306 bound_to 3712
   -3.5424  -16.6581   13.4884 LP  0  0  0  0  0  0  0  0  0  0  0  0  # atno 4307 bound_to 3712
    1.4593  -19.8701    8.8665 LP  0  0  0  0  0  0  0  0  0  0  0  0  # atno 4314 bound_to 3832
    2.9263  -20.1444    8.2037 LP  0  0  0  0  0  0  0  0  0  0  0  0  # atno 4315 bound_to 3832
   -5.0039  -21.9278   11.4190 LP  0  0  0  0  0  0  0  0  0  0  0  0  # atno 4318 bound_to 3762
   -3.9159  -23.0918   11.0612 LP  0  0  0  0  0  0  0  0  0  0  0  0  # atno 4319 bound_to 3762
   -3.6888   -4.9378    8.2802 LP  0  0  0  0  0  0  0  0  0  0  0  0  # atno 4320 bound_to 2467
   -4.7420   -5.4618    9.4128 LP  0  0  0  0  0  0  0  0  0  0  0  0  # atno 4321 bound_to 2467

> <Gold.Score>
     Score     S(PLP)   S(hbond)     S(cho)   S(metal)  DE(clash)   DE(tors)     intcor
     50.83     -44.15       3.00       0.00       0.00       0.00       1.17       0.01

> <Gold.PLP.Fitness>
50.8310

> <Gold.PLP.PLP>
-44.1481

> <Gold.PLP.part.hbond>
-2.0000

> <Gold.PLP.part.metal>
0.0000

> <Gold.PLP.part.buried>
-4.5151

> <Gold.PLP.part.nonpolar>
-37.8503

> <Gold.PLP.part.repulsive>
0.0000

> <Gold.PLP.ligand.clash>
0.0000

> <Gold.PLP.ligand.torsion>
1.1650

> <Gold.PLP.Chemscore.Hbond>
3.0000

> <Gold.PLP.Chemscore.CHOScore>
0.0000

> <Gold.PLP.Chemscore.Metal>
0.0000

> <Gold.Chemscore.Hbonds>
donor molecule, donor type, donor heavy atom, donor atom, acceptor molecule, acceptor atom, score
      L1  H     1    25       P1  1227  2.00
      L1  H     4    26       P1  1227  1.00

> <Gold.PLP.Chemscore.Internal.Correction>
0.0130

