#       Name:                EN300-119689_i002
#       Creating user name   fsindt
#       Creation time:       Wed Mar  1 03:38:17 2023


#       File generated by GOLD software.
#

@<TRIPOS>MOLECULE
EN300-119689_i002|amine_1|mol2|7803|dock9
    26    26     1
SMALL
USER_CHARGES


@<TRIPOS>ATOM
      1 N1           0.8219 -16.2407  11.5978 N.4            1 <1>                1.0000
      2 C2           0.6227 -15.0004  10.8362 C.3            1 <1>                0.0000
      3 C3           1.1090 -15.2005   9.3994 C.3            1 <1>                0.0000
      4 O4           0.3725 -16.2633   8.7910 O.3            1 <1>                0.0000
      5 C5           0.8979 -13.9305   8.6162 C.ar           1 <1>                0.0000
      6 C6           1.3250 -13.8492   7.3039 C.ar           1 <1>                0.0000
      7 C7           1.1328 -12.6851   6.5826 C.ar           1 <1>                0.0000
      8 C8           0.5134 -11.6003   7.1720 C.ar           1 <1>                0.0000
      9 C9           0.0835 -11.6795   8.4890 C.ar           1 <1>                0.0000
     10 O10         -0.5265 -10.6137   9.0710 O.3            1 <1>                0.0000
     11 C11         -1.4047 -10.8864  10.1649 C.3            1 <1>                0.0000
     12 F12         -0.8706 -10.3434  11.3383 F              1 <1>                0.0000
     13 F13         -2.6556 -10.3128   9.9128 F              1 <1>                0.0000
     14 C14          0.2727 -12.8501   9.2086 C.ar           1 <1>                0.0000
     15 H15         -0.4368 -14.7448  10.8289 H              1 <1>                0.0000
     16 H16          1.1880 -14.1932  11.3020 H              1 <1>                0.0000
     17 H17          2.1698 -15.4511   9.4064 H              1 <1>                0.0000
     18 H18          1.8097 -14.6962   6.8413 H              1 <1>                0.0000
     19 H19          1.4676 -12.6240   5.5576 H              1 <1>                0.0000
     20 H20          0.3643 -10.6912   6.6085 H              1 <1>                0.0000
     21 H21         -1.5161 -11.9644  10.2814 H              1 <1>                0.0000
     22 H22         -0.0610 -12.9142  10.2338 H              1 <1>                0.0000
     23 H23          1.2270 -16.0224  12.4958 H              1 <1>                0.0000
     24 H24         -0.0666 -16.6993  11.7321 H              1 <1>                0.0000
     25 H25          1.4424 -16.8520  11.0887 H              1 <1>                0.0000
     26 H26          0.7897 -17.1314   8.8786 H              1 <1>                0.0000
@<TRIPOS>BOND
    1    1    2 1     
    2    1   23 1     
    3    1   24 1     
    4    1   25 1     
    5    2    3 1     
    6    2   15 1     
    7    2   16 1     
    8    3    4 1     
    9    3    5 1     
   10    3   17 1     
   11    4   26 1     
   12    5    6 ar    
   13    5   14 ar    
   14    6    7 ar    
   15    6   18 1     
   16    7    8 ar    
   17    7   19 1     
   18    8    9 ar    
   19    8   20 1     
   20    9   10 1     
   21    9   14 ar    
   22   10   11 1     
   23   11   12 1     
   24   11   13 1     
   25   11   21 1     
   26   14   22 1     
@<TRIPOS>SUBSTRUCTURE
      1 ****           1
@<TRIPOS>SET
DONOR_HYDROGENS      STATIC     ATOMS    <user>   **** ""
4 23 24 25 26
ATOM$RED        STATIC     ATOMS    COLORGROUP SYSTEM
4 23 24 25 26
@<TRIPOS>COMMENT
> <Gold.Version>
2022.2.0

> <Gold.Id.Protein>
3pbl|protein|mol2

> <Gold.Protein.RotatedTorsions>
[ 1303 1298 1297 1294 ] final   84.62 input  179.99 | X-H torsion
[ 2461 2456 2455 2452 ] final -124.62 input   30.03 | X-H torsion
[ 2515 2510 2509 2506 ] final   74.69 input  -89.99 | X-H torsion
[ 3721 3712 3711 3710 ] final   98.71 input -179.91 | X-H torsion
[ 3841 3832 3831 3830 ] final  147.43 input -179.91 | X-H torsion
[ 3767 3762 3761 3758 ] final   32.05 input  -89.99 | X-H torsion
[ 2472 2467 2466 2463 ] final    1.39 input  -89.97 | X-H torsion

> <Gold.Protein.ActiveResidues>
 VAL82   VAL86   LEU89   PHE106  VAL107  ASP110  VAL111  MET112  CYS114  THR115 
 CYS181  SER182  ILE183  PHE188  VAL189  ILE190  SER192  SER193  SER196  TRP342 
 PHE345  PHE346  HIS349  VAL350  TYR365  THR369  GLY372  TYR373 

> <Gold.Protein.RotatedAtoms>
    4.3446  -10.1640    4.8265 H   0  0  0  0  0  0  0  0  0  0  0  0  # atno 1303 bound_to 1298
    0.6280   -9.2029    8.1000 H   0  0  0  0  0  0  0  0  0  0  0  0  # atno 2461 bound_to 2456
   -3.8108   -4.8709    8.0551 H   0  0  0  0  0  0  0  0  0  0  0  0  # atno 2472 bound_to 2467
    2.0862   -7.5693    5.6553 H   0  0  0  0  0  0  0  0  0  0  0  0  # atno 2515 bound_to 2510
   -2.8484  -17.5091   13.0605 H   0  0  0  0  0  0  0  0  0  0  0  0  # atno 3721 bound_to 3712
   -4.9556  -23.0767   10.0668 H   0  0  0  0  0  0  0  0  0  0  0  0  # atno 3767 bound_to 3762
    3.1283  -20.4360    8.6515 H   0  0  0  0  0  0  0  0  0  0  0  0  # atno 3841 bound_to 3832
    3.3516   -9.3481    3.8192 LP  0  0  0  0  0  0  0  0  0  0  0  0  # atno 4297 bound_to 1298
    4.6660   -8.6089    4.4457 LP  0  0  0  0  0  0  0  0  0  0  0  0  # atno 4298 bound_to 1298
    2.1397   -8.5904    8.0158 LP  0  0  0  0  0  0  0  0  0  0  0  0  # atno 4299 bound_to 2456
    0.9698   -8.0150    7.0325 LP  0  0  0  0  0  0  0  0  0  0  0  0  # atno 4300 bound_to 2456
    2.7850   -8.2640    4.3535 LP  0  0  0  0  0  0  0  0  0  0  0  0  # atno 4301 bound_to 2510
    2.4257   -9.1663    5.6663 LP  0  0  0  0  0  0  0  0  0  0  0  0  # atno 4302 bound_to 2510
   -2.7134  -17.9319   14.6035 LP  0  0  0  0  0  0  0  0  0  0  0  0  # atno 4306 bound_to 3712
   -3.5257  -16.5798   14.1810 LP  0  0  0  0  0  0  0  0  0  0  0  0  # atno 4307 bound_to 3712
    1.8914  -20.9294    9.5474 LP  0  0  0  0  0  0  0  0  0  0  0  0  # atno 4314 bound_to 3832
    1.7243  -19.6692    8.5225 LP  0  0  0  0  0  0  0  0  0  0  0  0  # atno 4315 bound_to 3832
   -5.2469  -21.9244   11.1868 LP  0  0  0  0  0  0  0  0  0  0  0  0  # atno 4318 bound_to 3762
   -3.9249  -22.8742   11.3172 LP  0  0  0  0  0  0  0  0  0  0  0  0  # atno 4319 bound_to 3762
   -4.4789   -5.4399    9.4322 LP  0  0  0  0  0  0  0  0  0  0  0  0  # atno 4320 bound_to 2467
   -5.4271   -5.0827    8.1517 LP  0  0  0  0  0  0  0  0  0  0  0  0  # atno 4321 bound_to 2467

> <Gold.Score>
     Score     S(PLP)   S(hbond)     S(cho)   S(metal)  DE(clash)   DE(tors)     intcor
     55.16     -48.48       3.31       0.00       0.00       1.10       1.10       0.05

> <Gold.PLP.Fitness>
55.1591

> <Gold.PLP.PLP>
-48.4822

> <Gold.PLP.part.hbond>
-3.0000

> <Gold.PLP.part.metal>
0.0000

> <Gold.PLP.part.buried>
-1.9522

> <Gold.PLP.part.nonpolar>
-44.6669

> <Gold.PLP.part.repulsive>
0.0022

> <Gold.PLP.ligand.clash>
1.1035

> <Gold.PLP.ligand.torsion>
1.1003

> <Gold.PLP.Chemscore.Hbond>
3.3100

> <Gold.PLP.Chemscore.CHOScore>
0.0000

> <Gold.PLP.Chemscore.Metal>
0.0000

> <Gold.Chemscore.Hbonds>
donor molecule, donor type, donor heavy atom, donor atom, acceptor molecule, acceptor atom, score
      L1  H     1    25       P1  1227  2.00
      L1  H     4    26       P1  1227  0.56
      P1  H  2456  2461       L1    10  0.75

> <Gold.PLP.Chemscore.Internal.Correction>
0.0511

