#       Name:                EN300-119689_i002
#       Creating user name   fsindt
#       Creation time:       Wed Mar  1 03:38:19 2023


#       File generated by GOLD software.
#

@<TRIPOS>MOLECULE
EN300-119689_i002|amine_1|mol2|7803|dock11
    26    26     1
SMALL
USER_CHARGES


@<TRIPOS>ATOM
      1 N1          -0.2591 -17.2295   8.7495 N.4            1 <1>                1.0000
      2 C2          -0.4223 -15.8855   8.1794 C.3            1 <1>                0.0000
      3 C3           0.9431 -15.2014   8.0869 C.3            1 <1>                0.0000
      4 O4           1.7043 -15.7976   7.0347 O.3            1 <1>                0.0000
      5 C5           0.7515 -13.7346   7.7995 C.ar           1 <1>                0.0000
      6 C6           1.3983 -13.1509   6.7260 C.ar           1 <1>                0.0000
      7 C7           1.2246 -11.8051   6.4596 C.ar           1 <1>                0.0000
      8 C8           0.4042 -11.0405   7.2659 C.ar           1 <1>                0.0000
      9 C9          -0.2464 -11.6241   8.3437 C.ar           1 <1>                0.0000
     10 O10         -1.0545 -10.8740   9.1382 O.3            1 <1>                0.0000
     11 C11         -2.0807 -11.5634   9.8551 C.3            1 <1>                0.0000
     12 F12         -1.5714 -12.0185  11.0761 F              1 <1>                0.0000
     13 F13         -3.1500 -10.6928  10.0913 F              1 <1>                0.0000
     14 C14         -0.0747 -12.9753   8.6056 C.ar           1 <1>                0.0000
     15 H15         -0.8577 -15.9638   7.1832 H              1 <1>                0.0000
     16 H16         -1.0809 -15.2972   8.8184 H              1 <1>                0.0000
     17 H17          1.4738 -15.3203   9.0316 H              1 <1>                0.0000
     18 H18          2.0405 -13.7469   6.0946 H              1 <1>                0.0000
     19 H19          1.7312 -11.3513   5.6206 H              1 <1>                0.0000
     20 H20          0.2695  -9.9894   7.0579 H              1 <1>                0.0000
     21 H21         -2.4270 -12.4130   9.2667 H              1 <1>                0.0000
     22 H22         -0.5800 -13.4318   9.4439 H              1 <1>                0.0000
     23 H23         -0.6530 -17.9121   8.1194 H              1 <1>                0.0000
     24 H24          0.7224 -17.4215   8.8826 H              1 <1>                0.0000
     25 H25         -0.7348 -17.2780   9.6380 H              1 <1>                0.0000
     26 H26          2.6608 -15.7622   7.1725 H              1 <1>                0.0000
@<TRIPOS>BOND
    1    1    2 1     
    2    1   23 1     
    3    1   24 1     
    4    1   25 1     
    5    2    3 1     
    6    2   15 1     
    7    2   16 1     
    8    3    4 1     
    9    3    5 1     
   10    3   17 1     
   11    4   26 1     
   12    5    6 ar    
   13    5   14 ar    
   14    6    7 ar    
   15    6   18 1     
   16    7    8 ar    
   17    7   19 1     
   18    8    9 ar    
   19    8   20 1     
   20    9   10 1     
   21    9   14 ar    
   22   10   11 1     
   23   11   12 1     
   24   11   13 1     
   25   11   21 1     
   26   14   22 1     
@<TRIPOS>SUBSTRUCTURE
      1 ****           1
@<TRIPOS>SET
DONOR_HYDROGENS      STATIC     ATOMS    <user>   **** ""
4 23 24 25 26
ATOM$RED        STATIC     ATOMS    COLORGROUP SYSTEM
4 23 24 25 26
@<TRIPOS>COMMENT
> <Gold.Version>
2022.2.0

> <Gold.Id.Protein>
3pbl|protein|mol2

> <Gold.Protein.RotatedTorsions>
[ 1303 1298 1297 1294 ] final -109.96 input  179.99 | X-H torsion
[ 2461 2456 2455 2452 ] final  125.94 input   30.03 | X-H torsion
[ 2515 2510 2509 2506 ] final  103.16 input  -89.99 | X-H torsion
[ 3721 3712 3711 3710 ] final   99.74 input -179.91 | X-H torsion
[ 3841 3832 3831 3830 ] final   94.92 input -179.91 | X-H torsion
[ 3767 3762 3761 3758 ] final  -39.26 input  -89.99 | X-H torsion
[ 2472 2467 2466 2463 ] final   14.19 input  -89.97 | X-H torsion

> <Gold.Protein.ActiveResidues>
 VAL82   VAL86   LEU89   PHE106  VAL107  ASP110  VAL111  MET112  CYS114  THR115 
 CYS181  SER182  ILE183  PHE188  VAL189  ILE190  SER192  SER193  SER196  TRP342 
 PHE345  PHE346  HIS349  VAL350  TYR365  THR369  GLY372  TYR373 

> <Gold.Protein.RotatedAtoms>
    4.0948   -8.5014    4.0077 H   0  0  0  0  0  0  0  0  0  0  0  0  # atno 1303 bound_to 1298
    2.0887   -8.7164    8.1238 H   0  0  0  0  0  0  0  0  0  0  0  0  # atno 2461 bound_to 2456
   -3.9511   -4.8317    7.9035 H   0  0  0  0  0  0  0  0  0  0  0  0  # atno 2472 bound_to 2467
    2.0292   -7.9099    5.9645 H   0  0  0  0  0  0  0  0  0  0  0  0  # atno 2515 bound_to 2510
   -2.8562  -17.4962   13.0566 H   0  0  0  0  0  0  0  0  0  0  0  0  # atno 3721 bound_to 3712
   -5.5110  -22.2500   10.5323 H   0  0  0  0  0  0  0  0  0  0  0  0  # atno 3767 bound_to 3762
    2.8929  -20.9005    9.2131 H   0  0  0  0  0  0  0  0  0  0  0  0  # atno 3841 bound_to 3832
    4.8186   -9.6248    4.9460 LP  0  0  0  0  0  0  0  0  0  0  0  0  # atno 4297 bound_to 1298
    3.4488   -9.9954    4.1380 LP  0  0  0  0  0  0  0  0  0  0  0  0  # atno 4298 bound_to 1298
    1.1345   -7.9601    7.0352 LP  0  0  0  0  0  0  0  0  0  0  0  0  # atno 4299 bound_to 2456
    0.5149   -9.1317    7.9893 LP  0  0  0  0  0  0  0  0  0  0  0  0  # atno 4300 bound_to 2456
    2.6488   -7.8327    4.4559 LP  0  0  0  0  0  0  0  0  0  0  0  0  # atno 4301 bound_to 2510
    2.6189   -9.2567    5.2545 LP  0  0  0  0  0  0  0  0  0  0  0  0  # atno 4302 bound_to 2510
   -2.7080  -17.9431   14.5916 LP  0  0  0  0  0  0  0  0  0  0  0  0  # atno 4306 bound_to 3712
   -3.5221  -16.5835   14.1974 LP  0  0  0  0  0  0  0  0  0  0  0  0  # atno 4307 bound_to 3712
    1.4101  -20.2891    9.2721 LP  0  0  0  0  0  0  0  0  0  0  0  0  # atno 4314 bound_to 3832
    2.4774  -19.7730    8.1491 LP  0  0  0  0  0  0  0  0  0  0  0  0  # atno 4315 bound_to 3832
   -4.3177  -22.2896   11.6464 LP  0  0  0  0  0  0  0  0  0  0  0  0  # atno 4318 bound_to 3762
   -4.2989  -23.3354   10.3923 LP  0  0  0  0  0  0  0  0  0  0  0  0  # atno 4319 bound_to 3762
   -4.2743   -5.4050    9.3979 LP  0  0  0  0  0  0  0  0  0  0  0  0  # atno 4320 bound_to 2467
   -5.4913   -5.1568    8.3377 LP  0  0  0  0  0  0  0  0  0  0  0  0  # atno 4321 bound_to 2467

> <Gold.Score>
     Score     S(PLP)   S(hbond)     S(cho)   S(metal)  DE(clash)   DE(tors)     intcor
     53.59     -48.67       3.00       0.00       0.00       2.44       0.83       0.03

> <Gold.PLP.Fitness>
53.5917

> <Gold.PLP.PLP>
-48.6688

> <Gold.PLP.part.hbond>
-2.5472

> <Gold.PLP.part.metal>
0.0000

> <Gold.PLP.part.buried>
-1.9914

> <Gold.PLP.part.nonpolar>
-45.1073

> <Gold.PLP.part.repulsive>
0.0036

> <Gold.PLP.ligand.clash>
2.4368

> <Gold.PLP.ligand.torsion>
0.8332

> <Gold.PLP.Chemscore.Hbond>
3.0000

> <Gold.PLP.Chemscore.CHOScore>
0.0000

> <Gold.PLP.Chemscore.Metal>
0.0000

> <Gold.Chemscore.Hbonds>
donor molecule, donor type, donor heavy atom, donor atom, acceptor molecule, acceptor atom, score
      L1  H     1    24       P1  1227  2.00
      L1  H     4    26       P1  1223  1.00

> <Gold.PLP.Chemscore.Internal.Correction>
0.0260

