#       Name:                EN300-119689_i002
#       Creating user name   fsindt
#       Creation time:       Wed Mar  1 03:38:21 2023


#       File generated by GOLD software.
#

@<TRIPOS>MOLECULE
EN300-119689_i002|amine_1|mol2|7803|dock13
    26    26     1
SMALL
USER_CHARGES


@<TRIPOS>ATOM
      1 N1           1.1297 -15.6119   8.1180 N.4            1 <1>                1.0000
      2 C2           1.5121 -14.2052   7.9363 C.3            1 <1>                0.0000
      3 C3           0.2590 -13.3645   7.6835 C.3            1 <1>                0.0000
      4 O4          -0.6701 -14.1176   6.9016 O.3            1 <1>                0.0000
      5 C5          -0.3741 -12.9980   9.0010 C.ar           1 <1>                0.0000
      6 C6          -0.1184 -13.7599  10.1258 C.ar           1 <1>                0.0000
      7 C7          -0.6979 -13.4263  11.3363 C.ar           1 <1>                0.0000
      8 C8          -1.5341 -12.3304  11.4242 C.ar           1 <1>                0.0000
      9 C9          -1.7920 -11.5638  10.2967 C.ar           1 <1>                0.0000
     10 O10         -2.6140 -10.4849  10.3807 O.3            1 <1>                0.0000
     11 C11         -3.8114 -10.5192   9.6014 C.3            1 <1>                0.0000
     12 F12         -4.5045 -11.7058   9.8635 F              1 <1>                0.0000
     13 F13         -4.6168  -9.4252   9.9356 F              1 <1>                0.0000
     14 C14         -1.2053 -11.8975   9.0849 C.ar           1 <1>                0.0000
     15 H15          2.0152 -13.8466   8.8343 H              1 <1>                0.0000
     16 H16          2.1856 -14.1190   7.0836 H              1 <1>                0.0000
     17 H17          0.5331 -12.4561   7.1469 H              1 <1>                0.0000
     18 H18          0.5349 -14.6173  10.0591 H              1 <1>                0.0000
     19 H19         -0.4968 -14.0232  12.2135 H              1 <1>                0.0000
     20 H20         -1.9870 -12.0706  12.3695 H              1 <1>                0.0000
     21 H21         -3.5572 -10.4732   8.5425 H              1 <1>                0.0000
     22 H22         -1.4045 -11.3024   8.2059 H              1 <1>                0.0000
     23 H23          1.8798 -16.1079   8.5756 H              1 <1>                0.0000
     24 H24          0.2970 -15.6635   8.6853 H              1 <1>                0.0000
     25 H25          0.9497 -16.0305   7.2177 H              1 <1>                0.0000
     26 H26         -1.4514 -14.4087   7.3915 H              1 <1>                0.0000
@<TRIPOS>BOND
    1    1    2 1     
    2    1   23 1     
    3    1   24 1     
    4    1   25 1     
    5    2    3 1     
    6    2   15 1     
    7    2   16 1     
    8    3    4 1     
    9    3    5 1     
   10    3   17 1     
   11    4   26 1     
   12    5    6 ar    
   13    5   14 ar    
   14    6    7 ar    
   15    6   18 1     
   16    7    8 ar    
   17    7   19 1     
   18    8    9 ar    
   19    8   20 1     
   20    9   10 1     
   21    9   14 ar    
   22   10   11 1     
   23   11   12 1     
   24   11   13 1     
   25   11   21 1     
   26   14   22 1     
@<TRIPOS>SUBSTRUCTURE
      1 ****           1
@<TRIPOS>SET
DONOR_HYDROGENS      STATIC     ATOMS    <user>   **** ""
4 23 24 25 26
ATOM$RED        STATIC     ATOMS    COLORGROUP SYSTEM
4 23 24 25 26
@<TRIPOS>COMMENT
> <Gold.Version>
2022.2.0

> <Gold.Id.Protein>
3pbl|protein|mol2

> <Gold.Protein.RotatedTorsions>
[ 1303 1298 1297 1294 ] final  -82.28 input  179.99 | X-H torsion
[ 2461 2456 2455 2452 ] final   85.94 input   30.03 | X-H torsion
[ 2515 2510 2509 2506 ] final  -76.50 input  -89.99 | X-H torsion
[ 3721 3712 3711 3710 ] final -162.96 input -179.91 | X-H torsion
[ 3841 3832 3831 3830 ] final -141.96 input -179.91 | X-H torsion
[ 3767 3762 3761 3758 ] final  -29.82 input  -89.99 | X-H torsion
[ 2472 2467 2466 2463 ] final   96.99 input  -89.97 | X-H torsion

> <Gold.Protein.ActiveResidues>
 VAL82   VAL86   LEU89   PHE106  VAL107  ASP110  VAL111  MET112  CYS114  THR115 
 CYS181  SER182  ILE183  PHE188  VAL189  ILE190  SER192  SER193  SER196  TRP342 
 PHE345  PHE346  HIS349  VAL350  TYR365  THR369  GLY372  TYR373 

> <Gold.Protein.RotatedAtoms>
    3.7304   -8.7006    3.8318 H   0  0  0  0  0  0  0  0  0  0  0  0  # atno 1303 bound_to 1298
    2.1215   -8.2548    7.6742 H   0  0  0  0  0  0  0  0  0  0  0  0  # atno 2461 bound_to 2456
   -5.1914   -4.9518    7.8583 H   0  0  0  0  0  0  0  0  0  0  0  0  # atno 2472 bound_to 2467
    2.8356   -8.7512    4.4830 H   0  0  0  0  0  0  0  0  0  0  0  0  # atno 2515 bound_to 2510
   -3.3388  -16.5396   13.7936 H   0  0  0  0  0  0  0  0  0  0  0  0  # atno 3721 bound_to 3712
   -5.4984  -22.3541   10.4179 H   0  0  0  0  0  0  0  0  0  0  0  0  # atno 3767 bound_to 3762
    2.5230  -19.6939    8.3618 H   0  0  0  0  0  0  0  0  0  0  0  0  # atno 3841 bound_to 3832
    4.9121   -9.1954    4.8443 LP  0  0  0  0  0  0  0  0  0  0  0  0  # atno 4297 bound_to 1298
    3.7198  -10.2256    4.4156 LP  0  0  0  0  0  0  0  0  0  0  0  0  # atno 4298 bound_to 1298
    0.5766   -8.2646    7.1446 LP  0  0  0  0  0  0  0  0  0  0  0  0  # atno 4299 bound_to 2456
    1.0400   -9.2886    8.3293 LP  0  0  0  0  0  0  0  0  0  0  0  0  # atno 4300 bound_to 2456
    2.2176   -8.8381    5.9918 LP  0  0  0  0  0  0  0  0  0  0  0  0  # atno 4301 bound_to 2510
    2.2433   -7.4097    5.2008 LP  0  0  0  0  0  0  0  0  0  0  0  0  # atno 4302 bound_to 2510
   -2.8432  -17.9293   13.1605 LP  0  0  0  0  0  0  0  0  0  0  0  0  # atno 4306 bound_to 3712
   -2.8298  -17.7018   14.7775 LP  0  0  0  0  0  0  0  0  0  0  0  0  # atno 4307 bound_to 3712
    2.8801  -21.0863    9.0757 LP  0  0  0  0  0  0  0  0  0  0  0  0  # atno 4314 bound_to 3832
    1.4348  -20.3696    9.3289 LP  0  0  0  0  0  0  0  0  0  0  0  0  # atno 4315 bound_to 3832
   -4.4378  -22.1914   11.6490 LP  0  0  0  0  0  0  0  0  0  0  0  0  # atno 4318 bound_to 3762
   -4.1915  -23.3294   10.5040 LP  0  0  0  0  0  0  0  0  0  0  0  0  # atno 4319 bound_to 3762
   -3.6528   -4.9787    8.4046 LP  0  0  0  0  0  0  0  0  0  0  0  0  # atno 4320 bound_to 2467
   -4.8728   -5.4630    9.3761 LP  0  0  0  0  0  0  0  0  0  0  0  0  # atno 4321 bound_to 2467

> <Gold.Score>
     Score     S(PLP)   S(hbond)     S(cho)   S(metal)  DE(clash)   DE(tors)     intcor
     53.87     -49.72       2.00       0.00       0.00       0.00       0.93       0.02

> <Gold.PLP.Fitness>
53.8704

> <Gold.PLP.PLP>
-49.7166

> <Gold.PLP.part.hbond>
-1.0000

> <Gold.PLP.part.metal>
0.0000

> <Gold.PLP.part.buried>
-5.3805

> <Gold.PLP.part.nonpolar>
-44.0570

> <Gold.PLP.part.repulsive>
0.0870

> <Gold.PLP.ligand.clash>
0.0000

> <Gold.PLP.ligand.torsion>
0.9318

> <Gold.PLP.Chemscore.Hbond>
2.0000

> <Gold.PLP.Chemscore.CHOScore>
0.0000

> <Gold.PLP.Chemscore.Metal>
0.0000

> <Gold.Chemscore.Hbonds>
donor molecule, donor type, donor heavy atom, donor atom, acceptor molecule, acceptor atom, score
      L1  H     1    23       P1  1227  2.00

> <Gold.PLP.Chemscore.Internal.Correction>
0.0173

