#       Name:                EN300-119689_i002
#       Creating user name   fsindt
#       Creation time:       Wed Mar  1 03:38:24 2023


#       File generated by GOLD software.
#

@<TRIPOS>MOLECULE
EN300-119689_i002|amine_1|mol2|7803|dock17
    26    26     1
SMALL
USER_CHARGES


@<TRIPOS>ATOM
      1 N1           1.7043 -14.6791   7.4458 N.4            1 <1>                1.0000
      2 C2           0.9522 -13.5310   6.9221 C.3            1 <1>                0.0000
      3 C3           1.2014 -12.3101   7.8099 C.3            1 <1>                0.0000
      4 O4           1.0426 -11.1187   7.0368 O.3            1 <1>                0.0000
      5 C5           0.2132 -12.3062   8.9476 C.ar           1 <1>                0.0000
      6 C6           0.2693 -13.2927   9.9144 C.ar           1 <1>                0.0000
      7 C7          -0.6361 -13.2920  10.9597 C.ar           1 <1>                0.0000
      8 C8          -1.5991 -12.3051  11.0401 C.ar           1 <1>                0.0000
      9 C9          -1.6572 -11.3135  10.0711 C.ar           1 <1>                0.0000
     10 O10         -2.6035 -10.3412  10.1482 O.3            1 <1>                0.0000
     11 C11         -3.9580 -10.7657  10.3134 C.3            1 <1>                0.0000
     12 F12         -4.8094  -9.6610  10.2048 F              1 <1>                0.0000
     13 F13         -4.2779 -11.7003   9.3227 F              1 <1>                0.0000
     14 C14         -0.7445 -11.3135   9.0266 C.ar           1 <1>                0.0000
     15 H15          1.2809 -13.3143   5.9057 H              1 <1>                0.0000
     16 H16         -0.1123 -13.7656   6.9173 H              1 <1>                0.0000
     17 H17          2.2149 -12.3518   8.2089 H              1 <1>                0.0000
     18 H18          1.0213 -14.0655   9.8532 H              1 <1>                0.0000
     19 H19         -0.5905 -14.0639  11.7137 H              1 <1>                0.0000
     20 H20         -2.3065 -12.3053  11.8562 H              1 <1>                0.0000
     21 H21         -4.0784 -11.2220  11.2959 H              1 <1>                0.0000
     22 H22         -0.7878 -10.5428   8.2712 H              1 <1>                0.0000
     23 H23          1.1652 -15.5219   7.3156 H              1 <1>                0.0000
     24 H24          2.5805 -14.7605   6.9522 H              1 <1>                0.0000
     25 H25          1.8837 -14.5432   8.4293 H              1 <1>                0.0000
     26 H26          1.7492 -10.9701   6.3935 H              1 <1>                0.0000
@<TRIPOS>BOND
    1    1    2 1     
    2    1   23 1     
    3    1   24 1     
    4    1   25 1     
    5    2    3 1     
    6    2   15 1     
    7    2   16 1     
    8    3    4 1     
    9    3    5 1     
   10    3   17 1     
   11    4   26 1     
   12    5    6 ar    
   13    5   14 ar    
   14    6    7 ar    
   15    6   18 1     
   16    7    8 ar    
   17    7   19 1     
   18    8    9 ar    
   19    8   20 1     
   20    9   10 1     
   21    9   14 ar    
   22   10   11 1     
   23   11   12 1     
   24   11   13 1     
   25   11   21 1     
   26   14   22 1     
@<TRIPOS>SUBSTRUCTURE
      1 ****           1
@<TRIPOS>SET
DONOR_HYDROGENS      STATIC     ATOMS    <user>   **** ""
4 23 24 25 26
ATOM$RED        STATIC     ATOMS    COLORGROUP SYSTEM
4 23 24 25 26
@<TRIPOS>COMMENT
> <Gold.Version>
2022.2.0

> <Gold.Id.Protein>
3pbl|protein|mol2

> <Gold.Protein.RotatedTorsions>
[ 1303 1298 1297 1294 ] final  -57.55 input  179.99 | X-H torsion
[ 2461 2456 2455 2452 ] final -141.11 input   30.03 | X-H torsion
[ 2515 2510 2509 2506 ] final    7.88 input  -89.99 | X-H torsion
[ 3721 3712 3711 3710 ] final  136.20 input -179.91 | X-H torsion
[ 3841 3832 3831 3830 ] final  -75.93 input -179.91 | X-H torsion
[ 3767 3762 3761 3758 ] final  110.45 input  -89.99 | X-H torsion
[ 2472 2467 2466 2463 ] final   66.99 input  -89.97 | X-H torsion

> <Gold.Protein.ActiveResidues>
 VAL82   VAL86   LEU89   PHE106  VAL107  ASP110  VAL111  MET112  CYS114  THR115 
 CYS181  SER182  ILE183  PHE188  VAL189  ILE190  SER192  SER193  SER196  TRP342 
 PHE345  PHE346  HIS349  VAL350  TYR365  THR369  GLY372  TYR373 

> <Gold.Protein.RotatedAtoms>
    3.4783   -9.0111    3.7771 H   0  0  0  0  0  0  0  0  0  0  0  0  # atno 1303 bound_to 1298
    0.8452   -9.2725    8.2454 H   0  0  0  0  0  0  0  0  0  0  0  0  # atno 2461 bound_to 2456
   -4.7564   -4.8361    7.6700 H   0  0  0  0  0  0  0  0  0  0  0  0  # atno 2472 bound_to 2467
    2.4866   -7.5536    4.6981 H   0  0  0  0  0  0  0  0  0  0  0  0  # atno 2515 bound_to 2510
   -3.1222  -17.0257   13.0964 H   0  0  0  0  0  0  0  0  0  0  0  0  # atno 3721 bound_to 3712
   -4.0107  -23.2528   10.7717 H   0  0  0  0  0  0  0  0  0  0  0  0  # atno 3767 bound_to 3762
    1.7186  -19.6878    8.8544 H   0  0  0  0  0  0  0  0  0  0  0  0  # atno 3841 bound_to 3832
    4.8422   -8.8434    4.6592 LP  0  0  0  0  0  0  0  0  0  0  0  0  # atno 4297 bound_to 1298
    4.0420  -10.2669    4.6555 LP  0  0  0  0  0  0  0  0  0  0  0  0  # atno 4298 bound_to 1298
    2.1589   -8.3963    7.8285 LP  0  0  0  0  0  0  0  0  0  0  0  0  # atno 4299 bound_to 2456
    0.7335   -8.1395    7.0744 LP  0  0  0  0  0  0  0  0  0  0  0  0  # atno 4300 bound_to 2456
    2.7515   -9.1535    4.8876 LP  0  0  0  0  0  0  0  0  0  0  0  0  # atno 4301 bound_to 2510
    2.0586   -8.2924    6.0898 LP  0  0  0  0  0  0  0  0  0  0  0  0  # atno 4302 bound_to 2510
   -2.6071  -18.2016   14.0607 LP  0  0  0  0  0  0  0  0  0  0  0  0  # atno 4306 bound_to 3712
   -3.3159  -16.8682   14.6824 LP  0  0  0  0  0  0  0  0  0  0  0  0  # atno 4307 bound_to 3712
    3.0671  -20.3819    8.3292 LP  0  0  0  0  0  0  0  0  0  0  0  0  # atno 4314 bound_to 3832
    2.1770  -21.0810    9.5063 LP  0  0  0  0  0  0  0  0  0  0  0  0  # atno 4315 bound_to 3832
   -5.4004  -22.5991   10.2165 LP  0  0  0  0  0  0  0  0  0  0  0  0  # atno 4318 bound_to 3762
   -4.7160  -22.0234   11.5828 LP  0  0  0  0  0  0  0  0  0  0  0  0  # atno 4319 bound_to 3762
   -3.6839   -5.1468    8.8616 LP  0  0  0  0  0  0  0  0  0  0  0  0  # atno 4320 bound_to 2467
   -5.2766   -5.4106    9.1073 LP  0  0  0  0  0  0  0  0  0  0  0  0  # atno 4321 bound_to 2467

> <Gold.Score>
     Score     S(PLP)   S(hbond)     S(cho)   S(metal)  DE(clash)   DE(tors)     intcor
     54.47     -54.02       1.30       0.00       0.00       2.46       0.50       0.01

> <Gold.PLP.Fitness>
54.4749

> <Gold.PLP.PLP>
-54.0226

> <Gold.PLP.part.hbond>
-2.0000

> <Gold.PLP.part.metal>
0.0000

> <Gold.PLP.part.buried>
-7.0465

> <Gold.PLP.part.nonpolar>
-46.1076

> <Gold.PLP.part.repulsive>
0.1315

> <Gold.PLP.ligand.clash>
2.4572

> <Gold.PLP.ligand.torsion>
0.5046

> <Gold.PLP.Chemscore.Hbond>
1.3020

> <Gold.PLP.Chemscore.CHOScore>
0.0000

> <Gold.PLP.Chemscore.Metal>
0.0000

> <Gold.Chemscore.Hbonds>
donor molecule, donor type, donor heavy atom, donor atom, acceptor molecule, acceptor atom, score
      L1  H     1    24       P1  1223  0.96
      P1  H  2456  2461       L1     4  0.34

> <Gold.PLP.Chemscore.Internal.Correction>
0.0130

