#       Name:                EN300-119689_i002
#       Creating user name   fsindt
#       Creation time:       Wed Mar  1 03:38:20 2023


#       File generated by GOLD software.
#

@<TRIPOS>MOLECULE
EN300-119689_i002|amine_1|mol2|7803|dock12
    26    26     1
SMALL
USER_CHARGES


@<TRIPOS>ATOM
      1 N1           0.0877 -16.9858   9.9573 N.4            1 <1>                1.0000
      2 C2          -0.2981 -16.5087  11.2920 C.3            1 <1>                0.0000
      3 C3           0.5533 -15.2934  11.6650 C.3            1 <1>                0.0000
      4 O4           1.9345 -15.5995  11.4636 O.3            1 <1>                0.0000
      5 C5           0.1662 -14.1236  10.7975 C.ar           1 <1>                0.0000
      6 C6           0.8280 -13.8998   9.6045 C.ar           1 <1>                0.0000
      7 C7           0.4752 -12.8271   8.8061 C.ar           1 <1>                0.0000
      8 C8          -0.5396 -11.9765   9.1990 C.ar           1 <1>                0.0000
      9 C9          -1.2056 -12.1993  10.3958 C.ar           1 <1>                0.0000
     10 O10         -2.2047 -11.3641  10.7845 O.3            1 <1>                0.0000
     11 C11         -3.0460 -10.8366   9.7567 C.3            1 <1>                0.0000
     12 F12         -4.3320 -10.6298  10.2672 F              1 <1>                0.0000
     13 F13         -2.5228  -9.6205   9.3042 F              1 <1>                0.0000
     14 C14         -0.8534 -13.2790  11.1922 C.ar           1 <1>                0.0000
     15 H15         -1.3510 -16.2269  11.2868 H              1 <1>                0.0000
     16 H16         -0.1381 -17.3023  12.0219 H              1 <1>                0.0000
     17 H17          0.3862 -15.0403  12.7120 H              1 <1>                0.0000
     18 H18          1.6220 -14.5635   9.2956 H              1 <1>                0.0000
     19 H19          0.9939 -12.6541   7.8747 H              1 <1>                0.0000
     20 H20         -0.8142 -11.1385   8.5756 H              1 <1>                0.0000
     21 H21         -3.0933 -11.5427   8.9278 H              1 <1>                0.0000
     22 H22         -1.3703 -13.4545  12.1242 H              1 <1>                0.0000
     23 H23         -0.3992 -16.4496   9.2548 H              1 <1>                0.0000
     24 H24          1.0831 -16.8750   9.8352 H              1 <1>                0.0000
     25 H25         -0.1560 -17.9606   9.8652 H              1 <1>                0.0000
     26 H26          2.0916 -16.3024  10.8183 H              1 <1>                0.0000
@<TRIPOS>BOND
    1    1    2 1     
    2    1   23 1     
    3    1   24 1     
    4    1   25 1     
    5    2    3 1     
    6    2   15 1     
    7    2   16 1     
    8    3    4 1     
    9    3    5 1     
   10    3   17 1     
   11    4   26 1     
   12    5    6 ar    
   13    5   14 ar    
   14    6    7 ar    
   15    6   18 1     
   16    7    8 ar    
   17    7   19 1     
   18    8    9 ar    
   19    8   20 1     
   20    9   10 1     
   21    9   14 ar    
   22   10   11 1     
   23   11   12 1     
   24   11   13 1     
   25   11   21 1     
   26   14   22 1     
@<TRIPOS>SUBSTRUCTURE
      1 ****           1
@<TRIPOS>SET
DONOR_HYDROGENS      STATIC     ATOMS    <user>   **** ""
4 23 24 25 26
ATOM$RED        STATIC     ATOMS    COLORGROUP SYSTEM
4 23 24 25 26
@<TRIPOS>COMMENT
> <Gold.Version>
2022.2.0

> <Gold.Id.Protein>
3pbl|protein|mol2

> <Gold.Protein.RotatedTorsions>
[ 1303 1298 1297 1294 ] final -105.90 input  179.99 | X-H torsion
[ 2461 2456 2455 2452 ] final   58.66 input   30.03 | X-H torsion
[ 2515 2510 2509 2506 ] final    1.63 input  -89.99 | X-H torsion
[ 3721 3712 3711 3710 ] final   31.91 input -179.91 | X-H torsion
[ 3841 3832 3831 3830 ] final   26.24 input -179.91 | X-H torsion
[ 3767 3762 3761 3758 ] final -144.19 input  -89.99 | X-H torsion
[ 2472 2467 2466 2463 ] final  154.31 input  -89.97 | X-H torsion

> <Gold.Protein.ActiveResidues>
 VAL82   VAL86   LEU89   PHE106  VAL107  ASP110  VAL111  MET112  CYS114  THR115 
 CYS181  SER182  ILE183  PHE188  VAL189  ILE190  SER192  SER193  SER196  TRP342 
 PHE345  PHE346  HIS349  VAL350  TYR365  THR369  GLY372  TYR373 

> <Gold.Protein.RotatedAtoms>
    4.0389   -8.5187    3.9756 H   0  0  0  0  0  0  0  0  0  0  0  0  # atno 1303 bound_to 1298
    1.9014   -8.0225    7.3653 H   0  0  0  0  0  0  0  0  0  0  0  0  # atno 2461 bound_to 2456
   -5.4994   -5.2700    8.6470 H   0  0  0  0  0  0  0  0  0  0  0  0  # atno 2472 bound_to 2467
    2.5298   -7.6123    4.6257 H   0  0  0  0  0  0  0  0  0  0  0  0  # atno 2515 bound_to 2510
   -2.4863  -18.0307   13.7720 H   0  0  0  0  0  0  0  0  0  0  0  0  # atno 3721 bound_to 3712
   -4.5127  -22.1377   11.6401 H   0  0  0  0  0  0  0  0  0  0  0  0  # atno 3767 bound_to 3762
    2.0186  -20.7531    9.6225 H   0  0  0  0  0  0  0  0  0  0  0  0  # atno 3841 bound_to 3832
    4.8433   -9.5631    4.9392 LP  0  0  0  0  0  0  0  0  0  0  0  0  # atno 4297 bound_to 1298
    3.4801  -10.0398    4.1769 LP  0  0  0  0  0  0  0  0  0  0  0  0  # atno 4298 bound_to 1298
    0.3649   -8.5758    7.3815 LP  0  0  0  0  0  0  0  0  0  0  0  0  # atno 4299 bound_to 2456
    1.4717   -9.2097    8.4012 LP  0  0  0  0  0  0  0  0  0  0  0  0  # atno 4300 bound_to 2456
    2.7227   -9.1951    4.9771 LP  0  0  0  0  0  0  0  0  0  0  0  0  # atno 4301 bound_to 2510
    2.0442   -8.1921    6.0727 LP  0  0  0  0  0  0  0  0  0  0  0  0  # atno 4302 bound_to 2510
   -3.2170  -17.0244   14.7874 LP  0  0  0  0  0  0  0  0  0  0  0  0  # atno 4306 bound_to 3712
   -3.4402  -16.8851   13.1757 LP  0  0  0  0  0  0  0  0  0  0  0  0  # atno 4307 bound_to 3712
    1.7753  -19.6546    8.4778 LP  0  0  0  0  0  0  0  0  0  0  0  0  # atno 4314 bound_to 3832
    3.1223  -20.5778    8.4704 LP  0  0  0  0  0  0  0  0  0  0  0  0  # atno 4315 bound_to 3832
   -4.1338  -23.3168   10.5756 LP  0  0  0  0  0  0  0  0  0  0  0  0  # atno 4318 bound_to 3762
   -5.4809  -22.4204   10.3557 LP  0  0  0  0  0  0  0  0  0  0  0  0  # atno 4319 bound_to 3762
   -4.2309   -4.8000    7.7324 LP  0  0  0  0  0  0  0  0  0  0  0  0  # atno 4320 bound_to 2467
   -3.9868   -5.3236    9.2598 LP  0  0  0  0  0  0  0  0  0  0  0  0  # atno 4321 bound_to 2467

> <Gold.Score>
     Score     S(PLP)   S(hbond)     S(cho)   S(metal)  DE(clash)   DE(tors)     intcor
     54.76     -48.79       3.00       0.00       0.00       0.00       1.53       0.03

> <Gold.PLP.Fitness>
54.7623

> <Gold.PLP.PLP>
-48.7869

> <Gold.PLP.part.hbond>
-2.0000

> <Gold.PLP.part.metal>
0.0000

> <Gold.PLP.part.buried>
-5.4360

> <Gold.PLP.part.nonpolar>
-42.8217

> <Gold.PLP.part.repulsive>
0.0322

> <Gold.PLP.ligand.clash>
0.0000

> <Gold.PLP.ligand.torsion>
1.5253

> <Gold.PLP.Chemscore.Hbond>
3.0000

> <Gold.PLP.Chemscore.CHOScore>
0.0000

> <Gold.PLP.Chemscore.Metal>
0.0000

> <Gold.Chemscore.Hbonds>
donor molecule, donor type, donor heavy atom, donor atom, acceptor molecule, acceptor atom, score
      L1  H     1    24       P1  1227  2.00
      L1  H     4    26       P1  1227  1.00

> <Gold.PLP.Chemscore.Internal.Correction>
0.0260

