#       Name:                EN300-119689_i002
#       Creating user name   fsindt
#       Creation time:       Wed Mar  1 03:38:09 2023


#       File generated by GOLD software.
#

@<TRIPOS>MOLECULE
EN300-119689_i002|amine_1|mol2|7803|dock2
    26    26     1
SMALL
USER_CHARGES


@<TRIPOS>ATOM
      1 N1           0.3250 -16.5600   8.1396 N.4            1 <1>                1.0000
      2 C2           0.3119 -15.0989   8.2907 C.3            1 <1>                0.0000
      3 C3           0.1677 -14.7405   9.7712 C.3            1 <1>                0.0000
      4 O4           1.3491 -15.1320  10.4733 O.3            1 <1>                0.0000
      5 C5          -0.0301 -13.2531   9.9109 C.ar           1 <1>                0.0000
      6 C6           0.9616 -12.3827   9.4985 C.ar           1 <1>                0.0000
      7 C7           0.7831 -11.0173   9.6254 C.ar           1 <1>                0.0000
      8 C8          -0.3870 -10.5197  10.1650 C.ar           1 <1>                0.0000
      9 C9          -1.3841 -11.3913  10.5793 C.ar           1 <1>                0.0000
     10 O10         -2.5365 -10.9043  11.1100 O.3            1 <1>                0.0000
     11 C11         -3.5706 -10.5413  10.1930 C.3            1 <1>                0.0000
     12 F12         -4.0708 -11.6923   9.5748 F              1 <1>                0.0000
     13 F13         -4.6024  -9.8975  10.8846 F              1 <1>                0.0000
     14 C14         -1.2048 -12.7603  10.4460 C.ar           1 <1>                0.0000
     15 H15          1.2442 -14.6854   7.9060 H              1 <1>                0.0000
     16 H16         -0.5272 -14.6833   7.7328 H              1 <1>                0.0000
     17 H17         -0.6932 -15.2624  10.1891 H              1 <1>                0.0000
     18 H18          1.8773 -12.7697   9.0767 H              1 <1>                0.0000
     19 H19          1.5594 -10.3393   9.3028 H              1 <1>                0.0000
     20 H20         -0.5257  -9.4534  10.2646 H              1 <1>                0.0000
     21 H21         -3.1658  -9.8692   9.4363 H              1 <1>                0.0000
     22 H22         -1.9794 -13.4407  10.7677 H              1 <1>                0.0000
     23 H23          1.1107 -16.9431   8.6435 H              1 <1>                0.0000
     24 H24         -0.5315 -16.9441   8.5094 H              1 <1>                0.0000
     25 H25          0.4051 -16.7963   7.1619 H              1 <1>                0.0000
     26 H26          1.8570 -15.8265  10.0320 H              1 <1>                0.0000
@<TRIPOS>BOND
    1    1    2 1     
    2    1   23 1     
    3    1   24 1     
    4    1   25 1     
    5    2    3 1     
    6    2   15 1     
    7    2   16 1     
    8    3    4 1     
    9    3    5 1     
   10    3   17 1     
   11    4   26 1     
   12    5    6 ar    
   13    5   14 ar    
   14    6    7 ar    
   15    6   18 1     
   16    7    8 ar    
   17    7   19 1     
   18    8    9 ar    
   19    8   20 1     
   20    9   10 1     
   21    9   14 ar    
   22   10   11 1     
   23   11   12 1     
   24   11   13 1     
   25   11   21 1     
   26   14   22 1     
@<TRIPOS>SUBSTRUCTURE
      1 ****           1
@<TRIPOS>SET
DONOR_HYDROGENS      STATIC     ATOMS    <user>   **** ""
4 23 24 25 26
ATOM$RED        STATIC     ATOMS    COLORGROUP SYSTEM
4 23 24 25 26
@<TRIPOS>COMMENT
> <Gold.Version>
2022.2.0

> <Gold.Id.Protein>
3pbl|protein|mol2

> <Gold.Protein.RotatedTorsions>
[ 1303 1298 1297 1294 ] final  102.43 input  179.99 | X-H torsion
[ 2461 2456 2455 2452 ] final   34.71 input   30.03 | X-H torsion
[ 2515 2510 2509 2506 ] final -161.89 input  -89.99 | X-H torsion
[ 3721 3712 3711 3710 ] final   61.67 input -179.91 | X-H torsion
[ 3841 3832 3831 3830 ] final  -57.90 input -179.91 | X-H torsion
[ 3767 3762 3761 3758 ] final  106.26 input  -89.99 | X-H torsion
[ 2472 2467 2466 2463 ] final  175.34 input  -89.97 | X-H torsion

> <Gold.Protein.ActiveResidues>
 VAL82   VAL86   LEU89   PHE106  VAL107  ASP110  VAL111  MET112  CYS114  THR115 
 CYS181  SER182  ILE183  PHE188  VAL189  ILE190  SER192  SER193  SER196  TRP342 
 PHE345  PHE346  HIS349  VAL350  TYR365  THR369  GLY372  TYR373 

> <Gold.Protein.RotatedAtoms>
    4.5658   -9.9957    4.9149 H   0  0  0  0  0  0  0  0  0  0  0  0  # atno 1303 bound_to 1298
    1.5855   -7.9238    7.1564 H   0  0  0  0  0  0  0  0  0  0  0  0  # atno 2461 bound_to 2456
   -5.3871   -5.3692    8.9567 H   0  0  0  0  0  0  0  0  0  0  0  0  # atno 2472 bound_to 2467
    2.4500   -9.1884    5.6205 H   0  0  0  0  0  0  0  0  0  0  0  0  # atno 2515 bound_to 2510
   -2.6002  -17.8953   13.3638 H   0  0  0  0  0  0  0  0  0  0  0  0  # atno 3721 bound_to 3712
   -4.0415  -23.2754   10.7143 H   0  0  0  0  0  0  0  0  0  0  0  0  # atno 3767 bound_to 3762
    1.6034  -19.8310    9.0540 H   0  0  0  0  0  0  0  0  0  0  0  0  # atno 3841 bound_to 3832
    3.3317   -9.6239    3.9124 LP  0  0  0  0  0  0  0  0  0  0  0  0  # atno 4297 bound_to 1298
    4.4645   -8.5015    4.2641 LP  0  0  0  0  0  0  0  0  0  0  0  0  # atno 4298 bound_to 1298
    0.3400   -8.8563    7.6531 LP  0  0  0  0  0  0  0  0  0  0  0  0  # atno 4299 bound_to 2456
    1.8123   -9.0278    8.3384 LP  0  0  0  0  0  0  0  0  0  0  0  0  # atno 4300 bound_to 2456
    2.0741   -7.6015    5.6999 LP  0  0  0  0  0  0  0  0  0  0  0  0  # atno 4301 bound_to 2510
    2.7726   -8.2089    4.3547 LP  0  0  0  0  0  0  0  0  0  0  0  0  # atno 4302 bound_to 2510
   -2.9704  -17.4437   14.8594 LP  0  0  0  0  0  0  0  0  0  0  0  0  # atno 4306 bound_to 3712
   -3.5553  -16.6222   13.5750 LP  0  0  0  0  0  0  0  0  0  0  0  0  # atno 4307 bound_to 3712
    2.9282  -20.1468    8.2047 LP  0  0  0  0  0  0  0  0  0  0  0  0  # atno 4314 bound_to 3832
    2.4489  -21.1506    9.4002 LP  0  0  0  0  0  0  0  0  0  0  0  0  # atno 4315 bound_to 3832
   -5.4283  -22.5473   10.2524 LP  0  0  0  0  0  0  0  0  0  0  0  0  # atno 4318 bound_to 3762
   -4.6573  -22.0526   11.6043 LP  0  0  0  0  0  0  0  0  0  0  0  0  # atno 4319 bound_to 3762
   -4.5670   -4.8108    7.6597 LP  0  0  0  0  0  0  0  0  0  0  0  0  # atno 4320 bound_to 2467
   -3.7630   -5.2136    9.0228 LP  0  0  0  0  0  0  0  0  0  0  0  0  # atno 4321 bound_to 2467

> <Gold.Score>
     Score     S(PLP)   S(hbond)     S(cho)   S(metal)  DE(clash)   DE(tors)     intcor
     52.53     -44.34       3.00       0.00       0.00       0.00       0.43       0.06

> <Gold.PLP.Fitness>
52.5299

> <Gold.PLP.PLP>
-44.3387

> <Gold.PLP.part.hbond>
-2.0000

> <Gold.PLP.part.metal>
0.0000

> <Gold.PLP.part.buried>
-3.4786

> <Gold.PLP.part.nonpolar>
-39.6139

> <Gold.PLP.part.repulsive>
0.0560

> <Gold.PLP.ligand.clash>
0.0000

> <Gold.PLP.ligand.torsion>
0.4320

> <Gold.PLP.Chemscore.Hbond>
3.0000

> <Gold.PLP.Chemscore.CHOScore>
0.0000

> <Gold.PLP.Chemscore.Metal>
0.0000

> <Gold.Chemscore.Hbonds>
donor molecule, donor type, donor heavy atom, donor atom, acceptor molecule, acceptor atom, score
      L1  H     1    23       P1  1227  2.00
      L1  H     4    26       P1  1227  1.00

> <Gold.PLP.Chemscore.Internal.Correction>
0.0553

