#       Name:                EN300-119689_i002
#       Creating user name   fsindt
#       Creation time:       Wed Mar  1 03:38:18 2023


#       File generated by GOLD software.
#

@<TRIPOS>MOLECULE
EN300-119689_i002|amine_1|mol2|7803|dock10
    26    26     1
SMALL
USER_CHARGES


@<TRIPOS>ATOM
      1 N1           0.7253 -17.5561  11.7009 N.4            1 <1>                1.0000
      2 C2          -0.1005 -16.4243  11.2591 C.3            1 <1>                0.0000
      3 C3           0.6976 -15.1262  11.3966 C.3            1 <1>                0.0000
      4 O4           2.0913 -15.4306  11.4815 O.3            1 <1>                0.0000
      5 C5           0.4465 -14.2525  10.1948 C.ar           1 <1>                0.0000
      6 C6           1.0765 -14.5295   8.9958 C.ar           1 <1>                0.0000
      7 C7           0.8482 -13.7297   7.8911 C.ar           1 <1>                0.0000
      8 C8          -0.0101 -12.6514   7.9831 C.ar           1 <1>                0.0000
      9 C9          -0.6440 -12.3715   9.1854 C.ar           1 <1>                0.0000
     10 O10         -1.4893 -11.3115   9.2784 O.3            1 <1>                0.0000
     11 C11         -2.0703 -11.0554  10.5587 C.3            1 <1>                0.0000
     12 F12         -1.1202 -10.4526  11.3899 F              1 <1>                0.0000
     13 F13         -3.1686 -10.2015  10.4100 F              1 <1>                0.0000
     14 C14         -0.4174 -13.1785  10.2905 C.ar           1 <1>                0.0000
     15 H15         -0.3848 -16.5672  10.2166 H              1 <1>                0.0000
     16 H16         -0.9975 -16.3664  11.8756 H              1 <1>                0.0000
     17 H17          0.3847 -14.6013  12.2993 H              1 <1>                0.0000
     18 H18          1.7483 -15.3719   8.9218 H              1 <1>                0.0000
     19 H19          1.3418 -13.9479   6.9556 H              1 <1>                0.0000
     20 H20         -0.1875 -12.0266   7.1204 H              1 <1>                0.0000
     21 H21         -2.3983 -11.9950  11.0034 H              1 <1>                0.0000
     22 H22         -0.9096 -12.9627  11.2274 H              1 <1>                0.0000
     23 H23          0.1276 -18.3144  11.9937 H              1 <1>                0.0000
     24 H24          1.3100 -17.8637  10.9384 H              1 <1>                0.0000
     25 H25          1.3055 -17.2674  12.4743 H              1 <1>                0.0000
     26 H26          2.3890 -16.0921  10.8421 H              1 <1>                0.0000
@<TRIPOS>BOND
    1    1    2 1     
    2    1   23 1     
    3    1   24 1     
    4    1   25 1     
    5    2    3 1     
    6    2   15 1     
    7    2   16 1     
    8    3    4 1     
    9    3    5 1     
   10    3   17 1     
   11    4   26 1     
   12    5    6 ar    
   13    5   14 ar    
   14    6    7 ar    
   15    6   18 1     
   16    7    8 ar    
   17    7   19 1     
   18    8    9 ar    
   19    8   20 1     
   20    9   10 1     
   21    9   14 ar    
   22   10   11 1     
   23   11   12 1     
   24   11   13 1     
   25   11   21 1     
   26   14   22 1     
@<TRIPOS>SUBSTRUCTURE
      1 ****           1
@<TRIPOS>SET
DONOR_HYDROGENS      STATIC     ATOMS    <user>   **** ""
4 23 24 25 26
ATOM$RED        STATIC     ATOMS    COLORGROUP SYSTEM
4 23 24 25 26
@<TRIPOS>COMMENT
> <Gold.Version>
2022.2.0

> <Gold.Id.Protein>
3pbl|protein|mol2

> <Gold.Protein.RotatedTorsions>
[ 1303 1298 1297 1294 ] final -161.70 input  179.99 | X-H torsion
[ 2461 2456 2455 2452 ] final  -27.49 input   30.03 | X-H torsion
[ 2515 2510 2509 2506 ] final   79.01 input  -89.99 | X-H torsion
[ 3721 3712 3711 3710 ] final  -98.60 input -179.91 | X-H torsion
[ 3841 3832 3831 3830 ] final    0.13 input -179.91 | X-H torsion
[ 3767 3762 3761 3758 ] final  -69.76 input  -89.99 | X-H torsion
[ 2472 2467 2466 2463 ] final  159.27 input  -89.97 | X-H torsion

> <Gold.Protein.ActiveResidues>
 VAL82   VAL86   LEU89   PHE106  VAL107  ASP110  VAL111  MET112  CYS114  THR115 
 CYS181  SER182  ILE183  PHE188  VAL189  ILE190  SER192  SER193  SER196  TRP342 
 PHE345  PHE346  HIS349  VAL350  TYR365  THR369  GLY372  TYR373 

> <Gold.Protein.RotatedAtoms>
    4.7254   -8.6655    4.5097 H   0  0  0  0  0  0  0  0  0  0  0  0  # atno 1303 bound_to 1298
    0.6522   -8.1984    7.1050 H   0  0  0  0  0  0  0  0  0  0  0  0  # atno 2461 bound_to 2456
   -5.4837   -5.2956    8.7228 H   0  0  0  0  0  0  0  0  0  0  0  0  # atno 2472 bound_to 2467
    2.0715   -7.6107    5.7112 H   0  0  0  0  0  0  0  0  0  0  0  0  # atno 2515 bound_to 2510
   -3.0859  -16.8520   14.6241 H   0  0  0  0  0  0  0  0  0  0  0  0  # atno 3721 bound_to 3712
   -5.4055  -21.9953   10.9448 H   0  0  0  0  0  0  0  0  0  0  0  0  # atno 3767 bound_to 3762
    1.7379  -20.4882    9.5591 H   0  0  0  0  0  0  0  0  0  0  0  0  # atno 3841 bound_to 3832
    4.2599  -10.2065    4.7835 LP  0  0  0  0  0  0  0  0  0  0  0  0  # atno 4297 bound_to 1298
    3.3766   -9.2495    3.7983 LP  0  0  0  0  0  0  0  0  0  0  0  0  # atno 4298 bound_to 1298
    0.9393   -9.2847    8.2903 LP  0  0  0  0  0  0  0  0  0  0  0  0  # atno 4299 bound_to 2456
    2.1461   -8.3249    7.7527 LP  0  0  0  0  0  0  0  0  0  0  0  0  # atno 4300 bound_to 2456
    2.7692   -8.1947    4.3555 LP  0  0  0  0  0  0  0  0  0  0  0  0  # atno 4301 bound_to 2510
    2.4561   -9.1941    5.6084 LP  0  0  0  0  0  0  0  0  0  0  0  0  # atno 4302 bound_to 2510
   -3.3545  -17.0534   13.0541 LP  0  0  0  0  0  0  0  0  0  0  0  0  # atno 4306 bound_to 3712
   -2.6104  -18.2170   13.9252 LP  0  0  0  0  0  0  0  0  0  0  0  0  # atno 4307 bound_to 3712
    2.1426  -19.6535    8.2494 LP  0  0  0  0  0  0  0  0  0  0  0  0  # atno 4314 bound_to 3832
    3.0792  -20.8848    8.7720 LP  0  0  0  0  0  0  0  0  0  0  0  0  # atno 4315 bound_to 3832
   -4.0165  -22.6539   11.4960 LP  0  0  0  0  0  0  0  0  0  0  0  0  # atno 4318 bound_to 3762
   -4.7056  -23.2256   10.1303 LP  0  0  0  0  0  0  0  0  0  0  0  0  # atno 4319 bound_to 3762
   -4.3077   -4.7985    7.7049 LP  0  0  0  0  0  0  0  0  0  0  0  0  # atno 4320 bound_to 2467
   -3.9257   -5.2995    9.2114 LP  0  0  0  0  0  0  0  0  0  0  0  0  # atno 4321 bound_to 2467

> <Gold.Score>
     Score     S(PLP)   S(hbond)     S(cho)   S(metal)  DE(clash)   DE(tors)     intcor
     51.77     -46.78       3.00       0.00       0.00       1.66       1.19       0.03

> <Gold.PLP.Fitness>
51.7667

> <Gold.PLP.PLP>
-46.7769

> <Gold.PLP.part.hbond>
-2.0000

> <Gold.PLP.part.metal>
0.0000

> <Gold.PLP.part.buried>
-4.5890

> <Gold.PLP.part.nonpolar>
-40.8500

> <Gold.PLP.part.repulsive>
0.0000

> <Gold.PLP.ligand.clash>
1.6573

> <Gold.PLP.ligand.torsion>
1.1895

> <Gold.PLP.Chemscore.Hbond>
3.0000

> <Gold.PLP.Chemscore.CHOScore>
0.0000

> <Gold.PLP.Chemscore.Metal>
0.0000

> <Gold.Chemscore.Hbonds>
donor molecule, donor type, donor heavy atom, donor atom, acceptor molecule, acceptor atom, score
      L1  H     1    24       P1  1227  2.00
      L1  H     4    26       P1  1227  1.00

> <Gold.PLP.Chemscore.Internal.Correction>
0.0260

