#       Name:                EN300-119689_i002
#       Creating user name   fsindt
#       Creation time:       Wed Mar  1 03:38:07 2023


#       File generated by GOLD software.
#

@<TRIPOS>MOLECULE
EN300-119689_i002
    26    26     1
SMALL
USER_CHARGES


@<TRIPOS>ATOM
      1 N1           3.8022   1.1212   0.3123 N.4            1 <1>                1.0000
      2 C2           2.4543   0.6408   0.6445 C.3            1 <1>                0.0000
      3 C3           1.7708   0.1226  -0.6225 C.3            1 <1>                0.0000
      4 O4           2.4722  -1.0243  -1.1070 O.3            1 <1>                0.0000
      5 C5           0.3469  -0.2559  -0.3061 C.ar           1 <1>                0.0000
      6 C6           0.0725  -1.4693   0.2969 C.ar           1 <1>                0.0000
      7 C7          -1.2331  -1.8196   0.5885 C.ar           1 <1>                0.0000
      8 C8          -2.2666  -0.9575   0.2777 C.ar           1 <1>                0.0000
      9 C9          -1.9937   0.2612  -0.3272 C.ar           1 <1>                0.0000
     10 O10         -3.0087   1.1113  -0.6336 O.3            1 <1>                0.0000
     11 C11         -4.3328   0.6861  -0.3047 C.3            1 <1>                0.0000
     12 F12         -4.6220  -0.5038  -0.9811 F              1 <1>                0.0000
     13 F13         -4.4248   0.4725   1.0749 F              1 <1>                0.0000
     14 C14         -0.6828   0.6124  -0.6138 C.ar           1 <1>                0.0000
     15 H15          2.5256  -0.1655   1.3745 H              1 <1>                0.0000
     16 H16          1.8697   1.4597   1.0637 H              1 <1>                0.0000
     17 H17          1.7789   0.9021  -1.3844 H              1 <1>                0.0000
     18 H18          0.8791  -2.1449   0.5404 H              1 <1>                0.0000
     19 H19         -1.4450  -2.7682   1.0593 H              1 <1>                0.0000
     20 H20         -3.2861  -1.2318   0.5049 H              1 <1>                0.0000
     21 H21         -5.0457   1.4553  -0.6016 H              1 <1>                0.0000
     22 H22         -0.4679   1.5604  -1.0846 H              1 <1>                0.0000
     23 H23          3.7361   1.8675  -0.3635 H              1 <1>                0.0000
     24 H24          4.2529   1.4629   1.1478 H              1 <1>                0.0000
     25 H25          4.3433   0.3631  -0.0757 H              1 <1>                0.0000
     26 H26          2.5050  -1.7594  -0.4795 H              1 <1>                0.0000
@<TRIPOS>BOND
    1    1    2 1     
    2    1   23 1     
    3    1   24 1     
    4    1   25 1     
    5    2    3 1     
    6    2   15 1     
    7    2   16 1     
    8    3    4 1     
    9    3    5 1     
   10    3   17 1     
   11    4   26 1     
   12    5    6 ar    
   13    5   14 ar    
   14    6    7 ar    
   15    6   18 1     
   16    7    8 ar    
   17    7   19 1     
   18    8    9 ar    
   19    8   20 1     
   20    9   10 1     
   21    9   14 ar    
   22   10   11 1     
   23   11   12 1     
   24   11   13 1     
   25   11   21 1     
   26   14   22 1     
@<TRIPOS>SUBSTRUCTURE
      1 ****           1
@<TRIPOS>SET
DONOR_HYDROGENS      STATIC     ATOMS    <user>   **** ""
4 23 24 25 26
ATOM$RED        STATIC     ATOMS    COLORGROUP SYSTEM
4 23 24 25 26
