#       Name:                EN300-119689_i002
#       Creating user name   fsindt
#       Creation time:       Wed Mar  1 03:38:08 2023


#       File generated by GOLD software.
#

@<TRIPOS>MOLECULE
EN300-119689_i002|amine_1|mol2|7803|dock1
    26    26     1
SMALL
USER_CHARGES


@<TRIPOS>ATOM
      1 N1           2.3352 -17.5799  12.3148 N.4            1 <1>                1.0000
      2 C2           2.0044 -16.4253  13.1606 C.3            1 <1>                0.0000
      3 C3           0.5184 -16.0928  13.0116 C.3            1 <1>                0.0000
      4 O4           0.0166 -15.5882  14.2508 O.3            1 <1>                0.0000
      5 C5           0.3421 -15.0514  11.9367 C.ar           1 <1>                0.0000
      6 C6           1.2183 -15.0062  10.8684 C.ar           1 <1>                0.0000
      7 C7           1.0592 -14.0518   9.8804 C.ar           1 <1>                0.0000
      8 C8           0.0239 -13.1407   9.9589 C.ar           1 <1>                0.0000
      9 C9          -0.8572 -13.1842  11.0301 C.ar           1 <1>                0.0000
     10 O10         -1.8768 -12.2893  11.1094 O.3            1 <1>                0.0000
     11 C11         -1.7003 -11.0431  10.4327 C.3            1 <1>                0.0000
     12 F12         -2.9394 -10.4091  10.2923 F              1 <1>                0.0000
     13 F13         -0.8404 -10.2268  11.1754 F              1 <1>                0.0000
     14 C14         -0.6985 -14.1460  12.0169 C.ar           1 <1>                0.0000
     15 H15          2.2206 -16.6639  14.2020 H              1 <1>                0.0000
     16 H16          2.6014 -15.5667  12.8532 H              1 <1>                0.0000
     17 H17         -0.0299 -16.9942  12.7376 H              1 <1>                0.0000
     18 H18          2.0286 -15.7174  10.8053 H              1 <1>                0.0000
     19 H19          1.7452 -14.0183   9.0470 H              1 <1>                0.0000
     20 H20         -0.0995 -12.3950   9.1876 H              1 <1>                0.0000
     21 H21         -1.2702 -11.2224   9.4473 H              1 <1>                0.0000
     22 H22         -1.3830 -14.1818  12.8516 H              1 <1>                0.0000
     23 H23          3.2878 -17.8627  12.4895 H              1 <1>                0.0000
     24 H24          1.7125 -18.3440  12.5302 H              1 <1>                0.0000
     25 H25          2.2325 -17.3259  11.3437 H              1 <1>                0.0000
     26 H26         -0.9345 -15.4130  14.2479 H              1 <1>                0.0000
@<TRIPOS>BOND
    1    1    2 1     
    2    1   23 1     
    3    1   24 1     
    4    1   25 1     
    5    2    3 1     
    6    2   15 1     
    7    2   16 1     
    8    3    4 1     
    9    3    5 1     
   10    3   17 1     
   11    4   26 1     
   12    5    6 ar    
   13    5   14 ar    
   14    6    7 ar    
   15    6   18 1     
   16    7    8 ar    
   17    7   19 1     
   18    8    9 ar    
   19    8   20 1     
   20    9   10 1     
   21    9   14 ar    
   22   10   11 1     
   23   11   12 1     
   24   11   13 1     
   25   11   21 1     
   26   14   22 1     
@<TRIPOS>SUBSTRUCTURE
      1 ****           1
@<TRIPOS>SET
DONOR_HYDROGENS      STATIC     ATOMS    <user>   **** ""
4 23 24 25 26
ATOM$RED        STATIC     ATOMS    COLORGROUP SYSTEM
4 23 24 25 26
@<TRIPOS>COMMENT
> <Gold.Version>
2022.2.0

> <Gold.Id.Protein>
3pbl|protein|mol2

> <Gold.Protein.RotatedTorsions>
[ 1303 1298 1297 1294 ] final   86.06 input  179.99 | X-H torsion
[ 2461 2456 2455 2452 ] final  122.67 input   30.03 | X-H torsion
[ 2515 2510 2509 2506 ] final -163.05 input  -89.99 | X-H torsion
[ 3721 3712 3711 3710 ] final  173.24 input -179.91 | X-H torsion
[ 3841 3832 3831 3830 ] final -160.00 input -179.91 | X-H torsion
[ 3767 3762 3761 3758 ] final  -83.79 input  -89.99 | X-H torsion
[ 2472 2467 2466 2463 ] final -131.22 input  -89.97 | X-H torsion

> <Gold.Protein.ActiveResidues>
 VAL82   VAL86   LEU89   PHE106  VAL107  ASP110  VAL111  MET112  CYS114  THR115 
 CYS181  SER182  ILE183  PHE188  VAL189  ILE190  SER192  SER193  SER196  TRP342 
 PHE345  PHE346  HIS349  VAL350  TYR365  THR369  GLY372  TYR373 

> <Gold.Protein.RotatedAtoms>
    4.3635  -10.1530    4.8354 H   0  0  0  0  0  0  0  0  0  0  0  0  # atno 1303 bound_to 1298
    2.1077   -8.6776    8.0917 H   0  0  0  0  0  0  0  0  0  0  0  0  # atno 2461 bound_to 2456
   -4.6847   -5.4599    9.4228 H   0  0  0  0  0  0  0  0  0  0  0  0  # atno 2472 bound_to 2467
    2.4418   -9.1811    5.6361 H   0  0  0  0  0  0  0  0  0  0  0  0  # atno 2515 bound_to 2510
   -3.3047  -16.6515   13.4560 H   0  0  0  0  0  0  0  0  0  0  0  0  # atno 3721 bound_to 3712
   -5.2883  -21.9341   11.1333 H   0  0  0  0  0  0  0  0  0  0  0  0  # atno 3767 bound_to 3762
    2.7517  -19.8398    8.3508 H   0  0  0  0  0  0  0  0  0  0  0  0  # atno 3841 bound_to 3832
    3.3471   -9.3707    3.8249 LP  0  0  0  0  0  0  0  0  0  0  0  0  # atno 4297 bound_to 1298
    4.6514   -8.5974    4.4311 LP  0  0  0  0  0  0  0  0  0  0  0  0  # atno 4298 bound_to 1298
    1.0828   -7.9749    7.0319 LP  0  0  0  0  0  0  0  0  0  0  0  0  # atno 4299 bound_to 2456
    0.5475   -9.1557    8.0247 LP  0  0  0  0  0  0  0  0  0  0  0  0  # atno 4300 bound_to 2456
    2.0780   -7.5902    5.6850 LP  0  0  0  0  0  0  0  0  0  0  0  0  # atno 4301 bound_to 2510
    2.7769   -8.2275    4.3539 LP  0  0  0  0  0  0  0  0  0  0  0  0  # atno 4302 bound_to 2510
   -2.6970  -18.1376   13.4626 LP  0  0  0  0  0  0  0  0  0  0  0  0  # atno 4306 bound_to 3712
   -3.0153  -17.3644   14.8652 LP  0  0  0  0  0  0  0  0  0  0  0  0  # atno 4307 bound_to 3712
    2.6611  -21.1522    9.2703 LP  0  0  0  0  0  0  0  0  0  0  0  0  # atno 4314 bound_to 3832
    1.3896  -20.1351    9.1469 LP  0  0  0  0  0  0  0  0  0  0  0  0  # atno 4315 bound_to 3832
   -3.9392  -22.8251   11.3630 LP  0  0  0  0  0  0  0  0  0  0  0  0  # atno 4318 bound_to 3762
   -4.9000  -23.1156   10.0749 LP  0  0  0  0  0  0  0  0  0  0  0  0  # atno 4319 bound_to 3762
   -5.3224   -5.0121    7.9878 LP  0  0  0  0  0  0  0  0  0  0  0  0  # atno 4320 bound_to 2467
   -3.7098   -4.9215    8.2286 LP  0  0  0  0  0  0  0  0  0  0  0  0  # atno 4321 bound_to 2467

> <Gold.Score>
     Score     S(PLP)   S(hbond)     S(cho)   S(metal)  DE(clash)   DE(tors)     intcor
     53.56     -47.79       3.00       0.00       0.00       0.00       1.66       0.09

> <Gold.PLP.Fitness>
53.5558

> <Gold.PLP.PLP>
-47.7890

> <Gold.PLP.part.hbond>
-2.0000

> <Gold.PLP.part.metal>
0.0000

> <Gold.PLP.part.buried>
-4.0927

> <Gold.PLP.part.nonpolar>
-42.0118

> <Gold.PLP.part.repulsive>
0.0578

> <Gold.PLP.ligand.clash>
0.0000

> <Gold.PLP.ligand.torsion>
1.6628

> <Gold.PLP.Chemscore.Hbond>
3.0000

> <Gold.PLP.Chemscore.CHOScore>
0.0000

> <Gold.PLP.Chemscore.Metal>
0.0000

> <Gold.Chemscore.Hbonds>
donor molecule, donor type, donor heavy atom, donor atom, acceptor molecule, acceptor atom, score
      L1  H     1    25       P1  1227  2.00
      P1  H  2305  2313       L1     4  1.00

> <Gold.PLP.Chemscore.Internal.Correction>
0.0925

