#       Name:                EN300-119689_i002
#       Creating user name   fsindt
#       Creation time:       Wed Mar  1 03:38:25 2023


#       File generated by GOLD software.
#

@<TRIPOS>MOLECULE
EN300-119689_i002|amine_1|mol2|7803|dock18
    26    26     1
SMALL
USER_CHARGES


@<TRIPOS>ATOM
      1 N1           0.1638 -17.1051   8.6821 N.4            1 <1>                1.0000
      2 C2           0.0189 -15.7638   8.1008 C.3            1 <1>                0.0000
      3 C3           0.5639 -14.7220   9.0799 C.3            1 <1>                0.0000
      4 O4           1.9345 -15.0080   9.3658 O.3            1 <1>                0.0000
      5 C5           0.4544 -13.3501   8.4660 C.ar           1 <1>                0.0000
      6 C6           1.1975 -13.0343   7.3439 C.ar           1 <1>                0.0000
      7 C7           1.0993 -11.7763   6.7782 C.ar           1 <1>                0.0000
      8 C8           0.2581 -10.8318   7.3334 C.ar           1 <1>                0.0000
      9 C9          -0.4892 -11.1465   8.4595 C.ar           1 <1>                0.0000
     10 O10         -1.3178 -10.2192   9.0074 O.3            1 <1>                0.0000
     11 C11         -2.3934 -10.7055   9.8129 C.3            1 <1>                0.0000
     12 F12         -1.9691 -10.8134  11.1416 F              1 <1>                0.0000
     13 F13         -3.4709  -9.8162   9.7382 F              1 <1>                0.0000
     14 C14         -0.3928 -12.4108   9.0218 C.ar           1 <1>                0.0000
     15 H15          0.5770 -15.7107   7.1660 H              1 <1>                0.0000
     16 H16         -1.0348 -15.5638   7.9067 H              1 <1>                0.0000
     17 H17         -0.0142 -14.7540  10.0035 H              1 <1>                0.0000
     18 H18          1.8561 -13.7712   6.9085 H              1 <1>                0.0000
     19 H19          1.6811 -11.5318   5.9018 H              1 <1>                0.0000
     20 H20          0.1823  -9.8492   6.8918 H              1 <1>                0.0000
     21 H21         -2.7049 -11.6850   9.4503 H              1 <1>                0.0000
     22 H22         -0.9734 -12.6581   9.8983 H              1 <1>                0.0000
     23 H23         -0.4693 -17.2040   9.4614 H              1 <1>                0.0000
     24 H24         -0.0522 -17.7998   7.9830 H              1 <1>                0.0000
     25 H25          1.1125 -17.2327   9.0012 H              1 <1>                0.0000
     26 H26          2.2083 -15.9032   9.1233 H              1 <1>                0.0000
@<TRIPOS>BOND
    1    1    2 1     
    2    1   23 1     
    3    1   24 1     
    4    1   25 1     
    5    2    3 1     
    6    2   15 1     
    7    2   16 1     
    8    3    4 1     
    9    3    5 1     
   10    3   17 1     
   11    4   26 1     
   12    5    6 ar    
   13    5   14 ar    
   14    6    7 ar    
   15    6   18 1     
   16    7    8 ar    
   17    7   19 1     
   18    8    9 ar    
   19    8   20 1     
   20    9   10 1     
   21    9   14 ar    
   22   10   11 1     
   23   11   12 1     
   24   11   13 1     
   25   11   21 1     
   26   14   22 1     
@<TRIPOS>SUBSTRUCTURE
      1 ****           1
@<TRIPOS>SET
DONOR_HYDROGENS      STATIC     ATOMS    <user>   **** ""
4 23 24 25 26
ATOM$RED        STATIC     ATOMS    COLORGROUP SYSTEM
4 23 24 25 26
@<TRIPOS>COMMENT
> <Gold.Version>
2022.2.0

> <Gold.Id.Protein>
3pbl|protein|mol2

> <Gold.Protein.RotatedTorsions>
[ 1303 1298 1297 1294 ] final -169.56 input  179.99 | X-H torsion
[ 2461 2456 2455 2452 ] final -107.35 input   30.03 | X-H torsion
[ 2515 2510 2509 2506 ] final -107.40 input  -89.99 | X-H torsion
[ 3721 3712 3711 3710 ] final -150.66 input -179.91 | X-H torsion
[ 3841 3832 3831 3830 ] final   45.89 input -179.91 | X-H torsion
[ 3767 3762 3761 3758 ] final -133.49 input  -89.99 | X-H torsion
[ 2472 2467 2466 2463 ] final  124.05 input  -89.97 | X-H torsion

> <Gold.Protein.ActiveResidues>
 VAL82   VAL86   LEU89   PHE106  VAL107  ASP110  VAL111  MET112  CYS114  THR115 
 CYS181  SER182  ILE183  PHE188  VAL189  ILE190  SER192  SER193  SER196  TRP342 
 PHE345  PHE346  HIS349  VAL350  TYR365  THR369  GLY372  TYR373 

> <Gold.Protein.RotatedAtoms>
    4.7895   -8.7477    4.5861 H   0  0  0  0  0  0  0  0  0  0  0  0  # atno 1303 bound_to 1298
    0.4553   -9.0771    7.9140 H   0  0  0  0  0  0  0  0  0  0  0  0  # atno 2461 bound_to 2456
   -5.4441   -5.0988    8.1889 H   0  0  0  0  0  0  0  0  0  0  0  0  # atno 2472 bound_to 2467
    2.7707   -9.1152    4.8228 H   0  0  0  0  0  0  0  0  0  0  0  0  # atno 2515 bound_to 2510
   -3.3273  -16.5309   13.9786 H   0  0  0  0  0  0  0  0  0  0  0  0  # atno 3721 bound_to 3712
   -4.6605  -22.0501   11.6029 H   0  0  0  0  0  0  0  0  0  0  0  0  # atno 3767 bound_to 3762
    2.2779  -20.8894    9.5840 H   0  0  0  0  0  0  0  0  0  0  0  0  # atno 3841 bound_to 3832
    4.1521  -10.2448    4.7234 LP  0  0  0  0  0  0  0  0  0  0  0  0  # atno 4297 bound_to 1298
    3.4204   -9.1290    3.7820 LP  0  0  0  0  0  0  0  0  0  0  0  0  # atno 4298 bound_to 1298
    2.0408   -8.7947    8.1853 LP  0  0  0  0  0  0  0  0  0  0  0  0  # atno 4299 bound_to 2456
    1.2414   -7.9365    7.0489 LP  0  0  0  0  0  0  0  0  0  0  0  0  # atno 4300 bound_to 2456
    2.0725   -8.3685    6.0959 LP  0  0  0  0  0  0  0  0  0  0  0  0  # atno 4301 bound_to 2510
    2.4533   -7.5150    4.7568 LP  0  0  0  0  0  0  0  0  0  0  0  0  # atno 4302 bound_to 2510
   -2.9369  -17.7827   13.0521 LP  0  0  0  0  0  0  0  0  0  0  0  0  # atno 4306 bound_to 3712
   -2.7494  -17.8584   14.6725 LP  0  0  0  0  0  0  0  0  0  0  0  0  # atno 4307 bound_to 3712
    1.5605  -19.7565    8.7020 LP  0  0  0  0  0  0  0  0  0  0  0  0  # atno 4314 bound_to 3832
    3.0375  -20.3184    8.2906 LP  0  0  0  0  0  0  0  0  0  0  0  0  # atno 4315 bound_to 3832
   -4.0400  -23.2745   10.7182 LP  0  0  0  0  0  0  0  0  0  0  0  0  # atno 4318 bound_to 3762
   -5.4268  -22.5502   10.2503 LP  0  0  0  0  0  0  0  0  0  0  0  0  # atno 4319 bound_to 3762
   -3.8373   -4.8609    8.0215 LP  0  0  0  0  0  0  0  0  0  0  0  0  # atno 4320 bound_to 2467
   -4.4357   -5.4339    9.4287 LP  0  0  0  0  0  0  0  0  0  0  0  0  # atno 4321 bound_to 2467

> <Gold.Score>
     Score     S(PLP)   S(hbond)     S(cho)   S(metal)  DE(clash)   DE(tors)     intcor
     54.37     -47.02       3.00       0.00       0.00       0.17       0.75       0.01

> <Gold.PLP.Fitness>
54.3650

> <Gold.PLP.PLP>
-47.0158

> <Gold.PLP.part.hbond>
-2.4283

> <Gold.PLP.part.metal>
0.0000

> <Gold.PLP.part.buried>
-0.2287

> <Gold.PLP.part.nonpolar>
-45.3348

> <Gold.PLP.part.repulsive>
0.0480

> <Gold.PLP.ligand.clash>
0.1712

> <Gold.PLP.ligand.torsion>
0.7463

> <Gold.PLP.Chemscore.Hbond>
3.0000

> <Gold.PLP.Chemscore.CHOScore>
0.0000

> <Gold.PLP.Chemscore.Metal>
0.0000

> <Gold.Chemscore.Hbonds>
donor molecule, donor type, donor heavy atom, donor atom, acceptor molecule, acceptor atom, score
      L1  H     1    25       P1  1227  2.00
      L1  H     4    26       P1  1227  1.00

> <Gold.PLP.Chemscore.Internal.Correction>
0.0130

