#       Name:                EN300-119689_i002
#       Creating user name   fsindt
#       Creation time:       Wed Mar  1 03:38:14 2023


#       File generated by GOLD software.
#

@<TRIPOS>MOLECULE
EN300-119689_i002|amine_1|mol2|7803|dock6
    26    26     1
SMALL
USER_CHARGES


@<TRIPOS>ATOM
      1 N1           0.1650 -16.4480   8.3096 N.4            1 <1>                1.0000
      2 C2           0.1113 -15.1942   7.5459 C.3            1 <1>                0.0000
      3 C3           0.8914 -14.1092   8.2910 C.3            1 <1>                0.0000
      4 O4           1.2796 -13.0858   7.3724 O.3            1 <1>                0.0000
      5 C5           0.0208 -13.5142   9.3675 C.ar           1 <1>                0.0000
      6 C6          -0.0037 -14.0813  10.6281 C.ar           1 <1>                0.0000
      7 C7          -0.8016 -13.5376  11.6180 C.ar           1 <1>                0.0000
      8 C8          -1.5765 -12.4262  11.3495 C.ar           1 <1>                0.0000
      9 C9          -1.5534 -11.8549  10.0851 C.ar           1 <1>                0.0000
     10 O10         -2.3146 -10.7611   9.8185 O.3            1 <1>                0.0000
     11 C11         -3.6811 -10.8046  10.2343 C.3            1 <1>                0.0000
     12 F12         -4.3093  -9.6006   9.8986 F              1 <1>                0.0000
     13 F13         -4.3305 -11.8644   9.5920 F              1 <1>                0.0000
     14 C14         -0.7481 -12.3990   9.0954 C.ar           1 <1>                0.0000
     15 H15          0.5538 -15.3489   6.5619 H              1 <1>                0.0000
     16 H16         -0.9269 -14.8821   7.4323 H              1 <1>                0.0000
     17 H17          1.7808 -14.5474   8.7439 H              1 <1>                0.0000
     18 H18          0.6012 -14.9505  10.8400 H              1 <1>                0.0000
     19 H19         -0.8193 -13.9826  12.6020 H              1 <1>                0.0000
     20 H20         -2.2001 -12.0024  12.1227 H              1 <1>                0.0000
     21 H21         -3.7281 -10.9503  11.3135 H              1 <1>                0.0000
     22 H22         -0.7285 -11.9561   8.1106 H              1 <1>                0.0000
     23 H23         -0.2055 -17.1999   7.7480 H              1 <1>                0.0000
     24 H24          1.1222 -16.6515   8.5550 H              1 <1>                0.0000
     25 H25         -0.3850 -16.3535   9.1502 H              1 <1>                0.0000
     26 H26          1.1839 -13.3347   6.4428 H              1 <1>                0.0000
@<TRIPOS>BOND
    1    1    2 1     
    2    1   23 1     
    3    1   24 1     
    4    1   25 1     
    5    2    3 1     
    6    2   15 1     
    7    2   16 1     
    8    3    4 1     
    9    3    5 1     
   10    3   17 1     
   11    4   26 1     
   12    5    6 ar    
   13    5   14 ar    
   14    6    7 ar    
   15    6   18 1     
   16    7    8 ar    
   17    7   19 1     
   18    8    9 ar    
   19    8   20 1     
   20    9   10 1     
   21    9   14 ar    
   22   10   11 1     
   23   11   12 1     
   24   11   13 1     
   25   11   21 1     
   26   14   22 1     
@<TRIPOS>SUBSTRUCTURE
      1 ****           1
@<TRIPOS>SET
DONOR_HYDROGENS      STATIC     ATOMS    <user>   **** ""
4 23 24 25 26
ATOM$RED        STATIC     ATOMS    COLORGROUP SYSTEM
4 23 24 25 26
@<TRIPOS>COMMENT
> <Gold.Version>
2022.2.0

> <Gold.Id.Protein>
3pbl|protein|mol2

> <Gold.Protein.RotatedTorsions>
[ 1303 1298 1297 1294 ] final   48.74 input  179.99 | X-H torsion
[ 2461 2456 2455 2452 ] final  137.75 input   30.03 | X-H torsion
[ 2515 2510 2509 2506 ] final -102.84 input  -89.99 | X-H torsion
[ 3721 3712 3711 3710 ] final   36.44 input -179.91 | X-H torsion
[ 3841 3832 3831 3830 ] final  -29.70 input -179.91 | X-H torsion
[ 3767 3762 3761 3758 ] final  139.31 input  -89.99 | X-H torsion
[ 2472 2467 2466 2463 ] final  179.63 input  -89.97 | X-H torsion

> <Gold.Protein.ActiveResidues>
 VAL82   VAL86   LEU89   PHE106  VAL107  ASP110  VAL111  MET112  CYS114  THR115 
 CYS181  SER182  ILE183  PHE188  VAL189  ILE190  SER192  SER193  SER196  TRP342 
 PHE345  PHE346  HIS349  VAL350  TYR365  THR369  GLY372  TYR373 

> <Gold.Protein.RotatedAtoms>
    3.8574  -10.2641    4.5267 H   0  0  0  0  0  0  0  0  0  0  0  0  # atno 1303 bound_to 1298
    1.9976   -8.8524    8.2279 H   0  0  0  0  0  0  0  0  0  0  0  0  # atno 2461 bound_to 2456
   -5.3501   -5.3859    9.0143 H   0  0  0  0  0  0  0  0  0  0  0  0  # atno 2472 bound_to 2467
    2.7871   -9.0736    4.7627 H   0  0  0  0  0  0  0  0  0  0  0  0  # atno 2515 bound_to 2510
   -2.4970  -18.0226   13.7048 H   0  0  0  0  0  0  0  0  0  0  0  0  # atno 3721 bound_to 3712
   -3.9067  -23.0144   11.1630 H   0  0  0  0  0  0  0  0  0  0  0  0  # atno 3767 bound_to 3762
    1.5717  -20.1344    9.3452 H   0  0  0  0  0  0  0  0  0  0  0  0  # atno 3841 bound_to 3832
    3.6062   -8.8267    3.7938 LP  0  0  0  0  0  0  0  0  0  0  0  0  # atno 4297 bound_to 1298
    4.8987   -9.0302    4.7710 LP  0  0  0  0  0  0  0  0  0  0  0  0  # atno 4298 bound_to 1298
    1.3227   -7.9247    7.0655 LP  0  0  0  0  0  0  0  0  0  0  0  0  # atno 4299 bound_to 2456
    0.4176   -9.0312    7.8549 LP  0  0  0  0  0  0  0  0  0  0  0  0  # atno 4300 bound_to 2456
    2.0882   -8.4418    6.0961 LP  0  0  0  0  0  0  0  0  0  0  0  0  # atno 4301 bound_to 2510
    2.4212   -7.4833    4.8167 LP  0  0  0  0  0  0  0  0  0  0  0  0  # atno 4302 bound_to 2510
   -3.1801  -17.0846   14.8145 LP  0  0  0  0  0  0  0  0  0  0  0  0  # atno 4306 bound_to 3712
   -3.4648  -16.8343   13.2261 LP  0  0  0  0  0  0  0  0  0  0  0  0  # atno 4307 bound_to 3712
    2.5866  -19.8363    8.1382 LP  0  0  0  0  0  0  0  0  0  0  0  0  # atno 4314 bound_to 3832
    2.8272  -21.1108    9.1303 LP  0  0  0  0  0  0  0  0  0  0  0  0  # atno 4315 bound_to 3832
   -5.1182  -22.9450   10.0702 LP  0  0  0  0  0  0  0  0  0  0  0  0  # atno 4318 bound_to 3762
   -5.1022  -21.9158   11.3379 LP  0  0  0  0  0  0  0  0  0  0  0  0  # atno 4319 bound_to 3762
   -4.6371   -4.8184    7.6594 LP  0  0  0  0  0  0  0  0  0  0  0  0  # atno 4320 bound_to 2467
   -3.7298   -5.1893    8.9655 LP  0  0  0  0  0  0  0  0  0  0  0  0  # atno 4321 bound_to 2467

> <Gold.Score>
     Score     S(PLP)   S(hbond)     S(cho)   S(metal)  DE(clash)   DE(tors)     intcor
     56.05     -52.27       2.00       0.00       0.00       0.07       1.11       0.06

> <Gold.PLP.Fitness>
56.0528

> <Gold.PLP.PLP>
-52.2732

> <Gold.PLP.part.hbond>
-1.0000

> <Gold.PLP.part.metal>
0.0000

> <Gold.PLP.part.buried>
-6.3888

> <Gold.PLP.part.nonpolar>
-46.1004

> <Gold.PLP.part.repulsive>
0.0377

> <Gold.PLP.ligand.clash>
0.0657

> <Gold.PLP.ligand.torsion>
1.1050

> <Gold.PLP.Chemscore.Hbond>
2.0000

> <Gold.PLP.Chemscore.CHOScore>
0.0000

> <Gold.PLP.Chemscore.Metal>
0.0000

> <Gold.Chemscore.Hbonds>
donor molecule, donor type, donor heavy atom, donor atom, acceptor molecule, acceptor atom, score
      L1  H     1    24       P1  1227  2.00

> <Gold.PLP.Chemscore.Internal.Correction>
0.0553

