#       Name:                EN300-119689_i002
#       Creating user name   fsindt
#       Creation time:       Wed Mar  1 03:38:12 2023


#       File generated by GOLD software.
#

@<TRIPOS>MOLECULE
EN300-119689_i002|amine_1|mol2|7803|dock4
    26    26     1
SMALL
USER_CHARGES


@<TRIPOS>ATOM
      1 N1           1.7223 -14.7348  10.2162 N.4            1 <1>                1.0000
      2 C2           0.9046 -14.5148   9.0158 C.3            1 <1>                0.0000
      3 C3           1.1114 -13.0848   8.5127 C.3            1 <1>                0.0000
      4 O4           0.6548 -12.9841   7.1623 O.3            1 <1>                0.0000
      5 C5           0.3316 -12.1298   9.3792 C.ar           1 <1>                0.0000
      6 C6           0.9744 -11.0690   9.9898 C.ar           1 <1>                0.0000
      7 C7           0.2617 -10.1910  10.7856 C.ar           1 <1>                0.0000
      8 C8          -1.0949 -10.3719  10.9724 C.ar           1 <1>                0.0000
      9 C9          -1.7425 -11.4357  10.3603 C.ar           1 <1>                0.0000
     10 O10         -3.0771 -11.6156  10.5422 O.3            1 <1>                0.0000
     11 C11         -3.9511 -10.9769   9.6092 C.3            1 <1>                0.0000
     12 F12         -5.2311 -11.5314   9.7143 F              1 <1>                0.0000
     13 F13         -4.0116  -9.6075   9.8891 F              1 <1>                0.0000
     14 C14         -1.0262 -12.3119   9.5583 C.ar           1 <1>                0.0000
     15 H15          1.2022 -15.2196   8.2394 H              1 <1>                0.0000
     16 H16         -0.1469 -14.6657   9.2597 H              1 <1>                0.0000
     17 H17          2.1712 -12.8335   8.5575 H              1 <1>                0.0000
     18 H18          2.0351 -10.9260   9.8453 H              1 <1>                0.0000
     19 H19          0.7661  -9.3632  11.2618 H              1 <1>                0.0000
     20 H20         -1.6510  -9.6864  11.5946 H              1 <1>                0.0000
     21 H21         -3.5731 -11.1246   8.5975 H              1 <1>                0.0000
     22 H22         -1.5280 -13.1405   9.0808 H              1 <1>                0.0000
     23 H23          2.1662 -15.6391  10.1597 H              1 <1>                0.0000
     24 H24          2.4284 -14.0168  10.2784 H              1 <1>                0.0000
     25 H25          1.1338 -14.6996  11.0350 H              1 <1>                0.0000
     26 H26         -0.1060 -12.3984   7.0470 H              1 <1>                0.0000
@<TRIPOS>BOND
    1    1    2 1     
    2    1   23 1     
    3    1   24 1     
    4    1   25 1     
    5    2    3 1     
    6    2   15 1     
    7    2   16 1     
    8    3    4 1     
    9    3    5 1     
   10    3   17 1     
   11    4   26 1     
   12    5    6 ar    
   13    5   14 ar    
   14    6    7 ar    
   15    6   18 1     
   16    7    8 ar    
   17    7   19 1     
   18    8    9 ar    
   19    8   20 1     
   20    9   10 1     
   21    9   14 ar    
   22   10   11 1     
   23   11   12 1     
   24   11   13 1     
   25   11   21 1     
   26   14   22 1     
@<TRIPOS>SUBSTRUCTURE
      1 ****           1
@<TRIPOS>SET
DONOR_HYDROGENS      STATIC     ATOMS    <user>   **** ""
4 23 24 25 26
ATOM$RED        STATIC     ATOMS    COLORGROUP SYSTEM
4 23 24 25 26
@<TRIPOS>COMMENT
> <Gold.Version>
2022.2.0

> <Gold.Id.Protein>
3pbl|protein|mol2

> <Gold.Protein.RotatedTorsions>
[ 1303 1298 1297 1294 ] final  -87.27 input  179.99 | X-H torsion
[ 2461 2456 2455 2452 ] final  162.26 input   30.03 | X-H torsion
[ 2515 2510 2509 2506 ] final   17.53 input  -89.99 | X-H torsion
[ 3721 3712 3711 3710 ] final   89.44 input -179.91 | X-H torsion
[ 3841 3832 3831 3830 ] final -142.60 input -179.91 | X-H torsion
[ 3767 3762 3761 3758 ] final -117.76 input  -89.99 | X-H torsion
[ 2472 2467 2466 2463 ] final  -57.31 input  -89.97 | X-H torsion

> <Gold.Protein.ActiveResidues>
 VAL82   VAL86   LEU89   PHE106  VAL107  ASP110  VAL111  MET112  CYS114  THR115 
 CYS181  SER182  ILE183  PHE188  VAL189  ILE190  SER192  SER193  SER196  TRP342 
 PHE345  PHE346  HIS349  VAL350  TYR365  THR369  GLY372  TYR373 

> <Gold.Protein.RotatedAtoms>
    3.7918   -8.6514    3.8554 H   0  0  0  0  0  0  0  0  0  0  0  0  # atno 1303 bound_to 1298
    1.7130   -9.0950    8.3709 H   0  0  0  0  0  0  0  0  0  0  0  0  # atno 2461 bound_to 2456
   -3.7089   -5.1724    8.9228 H   0  0  0  0  0  0  0  0  0  0  0  0  # atno 2472 bound_to 2467
    2.4188   -7.4813    4.8218 H   0  0  0  0  0  0  0  0  0  0  0  0  # atno 2515 bound_to 2510
   -2.7798  -17.6217   13.1075 H   0  0  0  0  0  0  0  0  0  0  0  0  # atno 3721 bound_to 3712
   -4.8794  -21.9582   11.5017 H   0  0  0  0  0  0  0  0  0  0  0  0  # atno 3767 bound_to 3762
    2.5316  -19.6982    8.3603 H   0  0  0  0  0  0  0  0  0  0  0  0  # atno 3841 bound_to 3832
    4.9085   -9.2727    4.8719 LP  0  0  0  0  0  0  0  0  0  0  0  0  # atno 4297 bound_to 1298
    3.6620  -10.1975    4.3645 LP  0  0  0  0  0  0  0  0  0  0  0  0  # atno 4298 bound_to 1298
    1.6942   -7.9430    7.2134 LP  0  0  0  0  0  0  0  0  0  0  0  0  # atno 4299 bound_to 2456
    0.3307   -8.7703    7.5640 LP  0  0  0  0  0  0  0  0  0  0  0  0  # atno 4300 bound_to 2456
    2.7883   -9.0704    4.7577 LP  0  0  0  0  0  0  0  0  0  0  0  0  # atno 4301 bound_to 2510
    2.0896   -8.4478    6.0959 LP  0  0  0  0  0  0  0  0  0  0  0  0  # atno 4302 bound_to 2510
   -2.7668  -17.8236   14.7003 LP  0  0  0  0  0  0  0  0  0  0  0  0  # atno 4306 bound_to 3712
   -3.5516  -16.5581   14.0300 LP  0  0  0  0  0  0  0  0  0  0  0  0  # atno 4307 bound_to 3712
    2.8732  -21.0899    9.0831 LP  0  0  0  0  0  0  0  0  0  0  0  0  # atno 4314 bound_to 3832
    1.4318  -20.3611    9.3231 LP  0  0  0  0  0  0  0  0  0  0  0  0  # atno 4315 bound_to 3832
   -3.9452  -23.1720   10.9351 LP  0  0  0  0  0  0  0  0  0  0  0  0  # atno 4318 bound_to 3762
   -5.3028  -22.7446   10.1345 LP  0  0  0  0  0  0  0  0  0  0  0  0  # atno 4319 bound_to 3762
   -5.3210   -5.3963    9.0543 LP  0  0  0  0  0  0  0  0  0  0  0  0  # atno 4320 bound_to 2467
   -4.6869   -4.8249    7.6622 LP  0  0  0  0  0  0  0  0  0  0  0  0  # atno 4321 bound_to 2467

> <Gold.Score>
     Score     S(PLP)   S(hbond)     S(cho)   S(metal)  DE(clash)   DE(tors)     intcor
     55.14     -50.44       2.00       0.00       0.00       0.00       0.68       0.06

> <Gold.PLP.Fitness>
55.1363

> <Gold.PLP.PLP>
-50.4408

> <Gold.PLP.part.hbond>
-1.0000

> <Gold.PLP.part.metal>
0.0000

> <Gold.PLP.part.buried>
-5.1050

> <Gold.PLP.part.nonpolar>
-45.7617

> <Gold.PLP.part.repulsive>
0.0798

> <Gold.PLP.ligand.clash>
0.0000

> <Gold.PLP.ligand.torsion>
0.6799

> <Gold.PLP.Chemscore.Hbond>
2.0000

> <Gold.PLP.Chemscore.CHOScore>
0.0000

> <Gold.PLP.Chemscore.Metal>
0.0000

> <Gold.Chemscore.Hbonds>
donor molecule, donor type, donor heavy atom, donor atom, acceptor molecule, acceptor atom, score
      L1  H     1    23       P1  1227  2.00

> <Gold.PLP.Chemscore.Internal.Correction>
0.0553

