#       Name:                EN300-119689_i002
#       Creating user name   fsindt
#       Creation time:       Wed Mar  1 03:38:11 2023


#       File generated by GOLD software.
#

@<TRIPOS>MOLECULE
EN300-119689_i002|amine_1|mol2|7803|dock3
    26    26     1
SMALL
USER_CHARGES


@<TRIPOS>ATOM
      1 N1           0.1976 -16.6415   9.7752 N.4            1 <1>                1.0000
      2 C2           0.0408 -15.7333  10.9191 C.3            1 <1>                0.0000
      3 C3           1.1121 -14.6427  10.8552 C.3            1 <1>                0.0000
      4 O4           2.4050 -15.2482  10.7932 O.3            1 <1>                0.0000
      5 C5           0.8944 -13.7961   9.6278 C.ar           1 <1>                0.0000
      6 C6           1.3786 -14.2175   8.4033 C.ar           1 <1>                0.0000
      7 C7           1.1805 -13.4428   7.2751 C.ar           1 <1>                0.0000
      8 C8           0.4981 -12.2455   7.3690 C.ar           1 <1>                0.0000
      9 C9           0.0108 -11.8206   8.5968 C.ar           1 <1>                0.0000
     10 O10         -0.6613 -10.6433   8.6917 O.3            1 <1>                0.0000
     11 C11         -1.5673 -10.4999   9.7875 C.3            1 <1>                0.0000
     12 F12         -0.8812  -9.9944  10.8969 F              1 <1>                0.0000
     13 F13         -2.5932  -9.6176   9.4320 F              1 <1>                0.0000
     14 C14          0.2062 -12.6021   9.7260 C.ar           1 <1>                0.0000
     15 H15         -0.9473 -15.2742  10.8859 H              1 <1>                0.0000
     16 H16          0.1492 -16.2952  11.8468 H              1 <1>                0.0000
     17 H17          1.0465 -14.0165  11.7450 H              1 <1>                0.0000
     18 H18          1.9127 -15.1531   8.3279 H              1 <1>                0.0000
     19 H19          1.5600 -13.7739   6.3197 H              1 <1>                0.0000
     20 H20          0.3443 -11.6405   6.4878 H              1 <1>                0.0000
     21 H21         -1.9937 -11.4718  10.0360 H              1 <1>                0.0000
     22 H22         -0.1722 -12.2735  10.6827 H              1 <1>                0.0000
     23 H23         -0.5420 -17.3277   9.7869 H              1 <1>                0.0000
     24 H24          0.1522 -16.1126   8.9172 H              1 <1>                0.0000
     25 H25          1.0902 -17.1079   9.8360 H              1 <1>                0.0000
     26 H26          2.4544 -16.0103  10.1999 H              1 <1>                0.0000
@<TRIPOS>BOND
    1    1    2 1     
    2    1   23 1     
    3    1   24 1     
    4    1   25 1     
    5    2    3 1     
    6    2   15 1     
    7    2   16 1     
    8    3    4 1     
    9    3    5 1     
   10    3   17 1     
   11    4   26 1     
   12    5    6 ar    
   13    5   14 ar    
   14    6    7 ar    
   15    6   18 1     
   16    7    8 ar    
   17    7   19 1     
   18    8    9 ar    
   19    8   20 1     
   20    9   10 1     
   21    9   14 ar    
   22   10   11 1     
   23   11   12 1     
   24   11   13 1     
   25   11   21 1     
   26   14   22 1     
@<TRIPOS>SUBSTRUCTURE
      1 ****           1
@<TRIPOS>SET
DONOR_HYDROGENS      STATIC     ATOMS    <user>   **** ""
4 23 24 25 26
ATOM$RED        STATIC     ATOMS    COLORGROUP SYSTEM
4 23 24 25 26
@<TRIPOS>COMMENT
> <Gold.Version>
2022.2.0

> <Gold.Id.Protein>
3pbl|protein|mol2

> <Gold.Protein.RotatedTorsions>
[ 1303 1298 1297 1294 ] final  -10.48 input  179.99 | X-H torsion
[ 2461 2456 2455 2452 ] final -110.68 input   30.03 | X-H torsion
[ 2515 2510 2509 2506 ] final   50.82 input  -89.99 | X-H torsion
[ 3721 3712 3711 3710 ] final -106.50 input -179.91 | X-H torsion
[ 3841 3832 3831 3830 ] final -139.77 input -179.91 | X-H torsion
[ 3767 3762 3761 3758 ] final  152.45 input  -89.99 | X-H torsion
[ 2472 2467 2466 2463 ] final  -96.59 input  -89.97 | X-H torsion

> <Gold.Protein.ActiveResidues>
 VAL82   VAL86   LEU89   PHE106  VAL107  ASP110  VAL111  MET112  CYS114  THR115 
 CYS181  SER182  ILE183  PHE188  VAL189  ILE190  SER192  SER193  SER196  TRP342 
 PHE345  PHE346  HIS349  VAL350  TYR365  THR369  GLY372  TYR373 

> <Gold.Protein.RotatedAtoms>
    3.3449   -9.7284    3.9627 H   0  0  0  0  0  0  0  0  0  0  0  0  # atno 1303 bound_to 1298
    0.4834   -9.1051    7.9518 H   0  0  0  0  0  0  0  0  0  0  0  0  # atno 2461 bound_to 2456
   -4.1357   -5.3720    9.3465 H   0  0  0  0  0  0  0  0  0  0  0  0  # atno 2472 bound_to 2467
    2.1997   -7.4239    5.3119 H   0  0  0  0  0  0  0  0  0  0  0  0  # atno 2515 bound_to 2510
   -3.1385  -16.7713   14.5537 H   0  0  0  0  0  0  0  0  0  0  0  0  # atno 3721 bound_to 3712
   -3.9256  -22.8691   11.3214 H   0  0  0  0  0  0  0  0  0  0  0  0  # atno 3767 bound_to 3762
    2.4936  -19.6798    8.3674 H   0  0  0  0  0  0  0  0  0  0  0  0  # atno 3841 bound_to 3832
    4.3740   -8.4817    4.1935 LP  0  0  0  0  0  0  0  0  0  0  0  0  # atno 4297 bound_to 1298
    4.6436   -9.9111    4.9355 LP  0  0  0  0  0  0  0  0  0  0  0  0  # atno 4298 bound_to 1298
    2.0659   -8.7560    8.1554 LP  0  0  0  0  0  0  0  0  0  0  0  0  # atno 4299 bound_to 2456
    1.1882   -7.9471    7.0410 LP  0  0  0  0  0  0  0  0  0  0  0  0  # atno 4300 bound_to 2456
    2.8342   -8.6431    4.4306 LP  0  0  0  0  0  0  0  0  0  0  0  0  # atno 4301 bound_to 2510
    2.2629   -8.9326    5.9327 LP  0  0  0  0  0  0  0  0  0  0  0  0  # atno 4302 bound_to 2510
   -3.2972  -17.1613   13.0043 LP  0  0  0  0  0  0  0  0  0  0  0  0  # atno 4306 bound_to 3712
   -2.6071  -18.2024   14.0562 LP  0  0  0  0  0  0  0  0  0  0  0  0  # atno 4307 bound_to 3712
    2.9029  -21.0735    9.0501 LP  0  0  0  0  0  0  0  0  0  0  0  0  # atno 4314 bound_to 3832
    1.4460  -20.3987    9.3480 LP  0  0  0  0  0  0  0  0  0  0  0  0  # atno 4315 bound_to 3832
   -4.9506  -23.0809   10.0679 LP  0  0  0  0  0  0  0  0  0  0  0  0  # atno 4318 bound_to 3762
   -5.2509  -21.9252   11.1819 LP  0  0  0  0  0  0  0  0  0  0  0  0  # atno 4319 bound_to 3762
   -5.5094   -5.2096    8.4787 LP  0  0  0  0  0  0  0  0  0  0  0  0  # atno 4320 bound_to 2467
   -4.0718   -4.8119    7.8140 LP  0  0  0  0  0  0  0  0  0  0  0  0  # atno 4321 bound_to 2467

> <Gold.Score>
     Score     S(PLP)   S(hbond)     S(cho)   S(metal)  DE(clash)   DE(tors)     intcor
     57.26     -47.88       4.00       0.00       0.00       0.00       1.34       0.06

> <Gold.PLP.Fitness>
57.2565

> <Gold.PLP.PLP>
-47.8840

> <Gold.PLP.part.hbond>
-3.0000

> <Gold.PLP.part.metal>
0.0000

> <Gold.PLP.part.buried>
-4.9575

> <Gold.PLP.part.nonpolar>
-40.8007

> <Gold.PLP.part.repulsive>
0.0047

> <Gold.PLP.ligand.clash>
0.0000

> <Gold.PLP.ligand.torsion>
1.3414

> <Gold.PLP.Chemscore.Hbond>
4.0000

> <Gold.PLP.Chemscore.CHOScore>
0.0000

> <Gold.PLP.Chemscore.Metal>
0.0000

> <Gold.Chemscore.Hbonds>
donor molecule, donor type, donor heavy atom, donor atom, acceptor molecule, acceptor atom, score
      L1  H     1    25       P1  1227  2.00
      L1  H     4    26       P1  1227  1.00
      P1  H  2456  2461       L1    10  1.00

> <Gold.PLP.Chemscore.Internal.Correction>
0.0553

