#       Name:                EN300-119689_i002
#       Creating user name   fsindt
#       Creation time:       Wed Mar  1 03:38:22 2023


#       File generated by GOLD software.
#

@<TRIPOS>MOLECULE
EN300-119689_i002|amine_1|mol2|7803|dock15
    26    26     1
SMALL
USER_CHARGES


@<TRIPOS>ATOM
      1 N1           0.2860 -18.2247  11.0892 N.4            1 <1>                1.0000
      2 C2          -0.3914 -17.3711  12.0743 C.3            1 <1>                0.0000
      3 C3           0.5426 -16.2333  12.4914 C.3            1 <1>                0.0000
      4 O4           1.8990 -16.6255  12.2713 O.3            1 <1>                0.0000
      5 C5           0.2355 -15.0058  11.6730 C.ar           1 <1>                0.0000
      6 C6          -0.7170 -14.1044  12.1107 C.ar           1 <1>                0.0000
      7 C7          -1.0011 -12.9770  11.3620 C.ar           1 <1>                0.0000
      8 C8          -0.3337 -12.7489  10.1743 C.ar           1 <1>                0.0000
      9 C9           0.6230 -13.6520   9.7331 C.ar           1 <1>                0.0000
     10 O10          1.2814 -13.4296   8.5652 O.3            1 <1>                0.0000
     11 C11          0.4822 -13.1728   7.4087 C.3            1 <1>                0.0000
     12 F12          1.2591 -12.5314   6.4381 F              1 <1>                0.0000
     13 F13          0.0011 -14.3825   6.8963 F              1 <1>                0.0000
     14 C14          0.9099 -14.7793  10.4886 C.ar           1 <1>                0.0000
     15 H15         -1.2967 -16.9546  11.6326 H              1 <1>                0.0000
     16 H16         -0.6544 -17.9648  12.9498 H              1 <1>                0.0000
     17 H17          0.3954 -16.0115  13.5484 H              1 <1>                0.0000
     18 H18         -1.2402 -14.2810  13.0388 H              1 <1>                0.0000
     19 H19         -1.7458 -12.2744  11.7058 H              1 <1>                0.0000
     20 H20         -0.5565 -11.8688   9.5896 H              1 <1>                0.0000
     21 H21         -0.3578 -12.5342   7.6819 H              1 <1>                0.0000
     22 H22          1.6541 -15.4836  10.1473 H              1 <1>                0.0000
     23 H23          0.7521 -18.9826  11.5650 H              1 <1>                0.0000
     24 H24         -0.3938 -18.5995  10.4448 H              1 <1>                0.0000
     25 H25          0.9653 -17.6782  10.5813 H              1 <1>                0.0000
     26 H26          2.1118 -16.8026  11.3448 H              1 <1>                0.0000
@<TRIPOS>BOND
    1    1    2 1     
    2    1   23 1     
    3    1   24 1     
    4    1   25 1     
    5    2    3 1     
    6    2   15 1     
    7    2   16 1     
    8    3    4 1     
    9    3    5 1     
   10    3   17 1     
   11    4   26 1     
   12    5    6 ar    
   13    5   14 ar    
   14    6    7 ar    
   15    6   18 1     
   16    7    8 ar    
   17    7   19 1     
   18    8    9 ar    
   19    8   20 1     
   20    9   10 1     
   21    9   14 ar    
   22   10   11 1     
   23   11   12 1     
   24   11   13 1     
   25   11   21 1     
   26   14   22 1     
@<TRIPOS>SUBSTRUCTURE
      1 ****           1
@<TRIPOS>SET
DONOR_HYDROGENS      STATIC     ATOMS    <user>   **** ""
4 23 24 25 26
ATOM$RED        STATIC     ATOMS    COLORGROUP SYSTEM
4 23 24 25 26
@<TRIPOS>COMMENT
> <Gold.Version>
2022.2.0

> <Gold.Id.Protein>
3pbl|protein|mol2

> <Gold.Protein.RotatedTorsions>
[ 1303 1298 1297 1294 ] final -177.08 input  179.99 | X-H torsion
[ 2461 2456 2455 2452 ] final  -94.61 input   30.03 | X-H torsion
[ 2515 2510 2509 2506 ] final   34.79 input  -89.99 | X-H torsion
[ 3721 3712 3711 3710 ] final  -75.63 input -179.91 | X-H torsion
[ 3841 3832 3831 3830 ] final -104.48 input -179.91 | X-H torsion
[ 3767 3762 3761 3758 ] final  156.73 input  -89.99 | X-H torsion
[ 2472 2467 2466 2463 ] final  -70.65 input  -89.97 | X-H torsion

> <Gold.Protein.ActiveResidues>
 VAL82   VAL86   LEU89   PHE106  VAL107  ASP110  VAL111  MET112  CYS114  THR115 
 CYS181  SER182  ILE183  PHE188  VAL189  ILE190  SER192  SER193  SER196  TRP342 
 PHE345  PHE346  HIS349  VAL350  TYR365  THR369  GLY372  TYR373 

> <Gold.Protein.RotatedAtoms>
    4.8390   -8.8374    4.6553 H   0  0  0  0  0  0  0  0  0  0  0  0  # atno 1303 bound_to 1298
    0.3730   -8.9562    7.7645 H   0  0  0  0  0  0  0  0  0  0  0  0  # atno 2461 bound_to 2456
   -3.8167   -5.2474    9.0981 H   0  0  0  0  0  0  0  0  0  0  0  0  # atno 2472 bound_to 2467
    2.2998   -7.4131    5.0692 H   0  0  0  0  0  0  0  0  0  0  0  0  # atno 2515 bound_to 2510
   -2.9175  -17.1269   14.7466 H   0  0  0  0  0  0  0  0  0  0  0  0  # atno 3721 bound_to 3712
   -3.9407  -22.8185   11.3682 H   0  0  0  0  0  0  0  0  0  0  0  0  # atno 3767 bound_to 3762
    2.0206  -19.5813    8.5721 H   0  0  0  0  0  0  0  0  0  0  0  0  # atno 3841 bound_to 3832
    4.0484  -10.2661    4.6596 LP  0  0  0  0  0  0  0  0  0  0  0  0  # atno 4297 bound_to 1298
    3.4746   -9.0181    3.7766 LP  0  0  0  0  0  0  0  0  0  0  0  0  # atno 4298 bound_to 1298
    1.9213   -8.9351    8.2838 LP  0  0  0  0  0  0  0  0  0  0  0  0  # atno 4299 bound_to 2456
    1.4433   -7.9170    7.0999 LP  0  0  0  0  0  0  0  0  0  0  0  0  # atno 4300 bound_to 2456
    2.8287   -8.8715    4.5604 LP  0  0  0  0  0  0  0  0  0  0  0  0  # atno 4301 bound_to 2510
    2.1683   -8.7150    6.0457 LP  0  0  0  0  0  0  0  0  0  0  0  0  # atno 4302 bound_to 2510
   -3.4891  -16.7826   13.2862 LP  0  0  0  0  0  0  0  0  0  0  0  0  # atno 4306 bound_to 3712
   -2.6703  -18.1704   13.5516 LP  0  0  0  0  0  0  0  0  0  0  0  0  # atno 4307 bound_to 3712
    3.1220  -20.7477    8.6227 LP  0  0  0  0  0  0  0  0  0  0  0  0  # atno 4314 bound_to 3832
    1.7733  -20.8383    9.5389 LP  0  0  0  0  0  0  0  0  0  0  0  0  # atno 4315 bound_to 3832
   -4.8928  -23.1203   10.0762 LP  0  0  0  0  0  0  0  0  0  0  0  0  # atno 4318 bound_to 3762
   -5.2935  -21.9363   11.1269 LP  0  0  0  0  0  0  0  0  0  0  0  0  # atno 4319 bound_to 3762
   -5.4311   -5.3429    8.8726 LP  0  0  0  0  0  0  0  0  0  0  0  0  # atno 4320 bound_to 2467
   -4.4690   -4.8032    7.6686 LP  0  0  0  0  0  0  0  0  0  0  0  0  # atno 4321 bound_to 2467

> <Gold.Score>
     Score     S(PLP)   S(hbond)     S(cho)   S(metal)  DE(clash)   DE(tors)     intcor
     50.26     -44.22       3.00       0.00       0.00       0.00       1.49       0.01

> <Gold.PLP.Fitness>
50.2576

> <Gold.PLP.PLP>
-44.2175

> <Gold.PLP.part.hbond>
-2.0000

> <Gold.PLP.part.metal>
0.0000

> <Gold.PLP.part.buried>
-5.0485

> <Gold.PLP.part.nonpolar>
-38.1885

> <Gold.PLP.part.repulsive>
0.0645

> <Gold.PLP.ligand.clash>
0.0000

> <Gold.PLP.ligand.torsion>
1.4864

> <Gold.PLP.Chemscore.Hbond>
3.0000

> <Gold.PLP.Chemscore.CHOScore>
0.0000

> <Gold.PLP.Chemscore.Metal>
0.0000

> <Gold.Chemscore.Hbonds>
donor molecule, donor type, donor heavy atom, donor atom, acceptor molecule, acceptor atom, score
      L1  H     1    25       P1  1227  2.00
      L1  H     4    26       P1  1227  1.00

> <Gold.PLP.Chemscore.Internal.Correction>
0.0130

