#       Name:                EN300-15782_i003
#       Creating user name   fsindt
#       Creation time:       Wed Mar  1 02:29:26 2023


#       File generated by GOLD software.
#

@<TRIPOS>MOLECULE
EN300-15782_i003|acide_3|mol2|9005|dock10
    35    35     1
SMALL
USER_CHARGES


@<TRIPOS>ATOM
      1 C1           3.1631 -17.0987  12.9045 C.3            1 <1>                0.0000
      2 C2           1.6945 -16.6700  12.8861 C.3            1 <1>                0.0000
      3 O3           1.2364 -16.5971  11.5344 O.3            1 <1>                0.0000
      4 C4           0.8550 -17.6925  13.6547 C.3            1 <1>                0.0000
      5 N5           0.0751 -18.4941  12.7084 N.pl3          1 <1>                0.0000
      6 S6           0.8042 -19.7151  11.8600 S.o2           1 <1>                0.0000
      7 O7           0.1295 -19.7951  10.6121 O.2            1 <1>                0.0000
      8 O8           2.2046 -19.5024  11.9742 O.2            1 <1>                0.0000
      9 C9           0.4586 -21.2194  12.7100 C.ar           1 <1>                0.0000
     10 C10          1.2737 -21.6294  13.7482 C.ar           1 <1>                0.0000
     11 C11          1.0025 -22.8098  14.4151 C.ar           1 <1>                0.0000
     12 C12         -0.0838 -23.5794  14.0439 C.ar           1 <1>                0.0000
     13 C13         -0.3790 -24.8662  14.7705 C.3            1 <1>                0.0000
     14 C14         -0.8998 -23.1686  13.0062 C.ar           1 <1>                0.0000
     15 C15         -2.0845 -24.0076  12.6018 C.3            1 <1>                0.0000
     16 C16         -0.6310 -21.9866  12.3421 C.ar           1 <1>                0.0000
     17 C17         -0.0794 -16.9721  14.5922 C.2            1 <1>                0.0000
     18 O18         -0.0713 -15.7540  14.6444 O.co2          1 <1>                0.0000
     19 O19         -0.8436 -17.6074  15.2986 O.co2          1 <1>               -1.0000
     20 H20          3.7612 -16.3703  12.3569 H              1 <1>                0.0000
     21 H21          3.5124 -17.1544  13.9355 H              1 <1>                0.0000
     22 H22          3.2619 -18.0771  12.4342 H              1 <1>                0.0000
     23 H23          1.5957 -15.6916  13.3564 H              1 <1>                0.0000
     24 H24          1.5130 -18.3453  14.2281 H              1 <1>                0.0000
     25 H25          2.1225 -21.0279  14.0383 H              1 <1>                0.0000
     26 H26          1.6398 -23.1305  15.2259 H              1 <1>                0.0000
     27 H27         -1.0409 -24.6644  15.6126 H              1 <1>                0.0000
     28 H28         -0.8617 -25.5661  14.0885 H              1 <1>                0.0000
     29 H29          0.5523 -25.2991  15.1360 H              1 <1>                0.0000
     30 H30         -2.9606 -23.6977  13.1715 H              1 <1>                0.0000
     31 H31         -2.2776 -23.8745  11.5373 H              1 <1>                0.0000
     32 H32         -1.8723 -25.0574  12.8042 H              1 <1>                0.0000
     33 H33         -1.2686 -21.6657  11.5315 H              1 <1>                0.0000
     34 H34          1.9113 -16.8177  10.8780 H              1 <1>                0.0000
     35 H35         -0.8683 -18.3096  12.5788 H              1 <1>                0.0000
@<TRIPOS>BOND
    1    1    2 1     
    2    1   20 1     
    3    1   21 1     
    4    1   22 1     
    5    2    3 1     
    6    2    4 1     
    7    2   23 1     
    8    3   34 1     
    9    4    5 1     
   10    4   17 1     
   11    4   24 1     
   12    5    6 1     
   13    5   35 1     
   14    6    7 2     
   15    6    8 2     
   16    6    9 1     
   17    9   10 ar    
   18    9   16 ar    
   19   10   11 ar    
   20   10   25 1     
   21   11   12 ar    
   22   11   26 1     
   23   12   13 1     
   24   12   14 ar    
   25   13   27 1     
   26   13   28 1     
   27   13   29 1     
   28   14   15 1     
   29   14   16 ar    
   30   15   30 1     
   31   15   31 1     
   32   15   32 1     
   33   16   33 1     
   34   17   18 ar    
   35   17   19 ar    
@<TRIPOS>SUBSTRUCTURE
      1 ****           1
@<TRIPOS>SET
DONOR_HYDROGENS      STATIC     ATOMS    <user>   **** ""
2 34 35
ATOM$RED        STATIC     ATOMS    COLORGROUP SYSTEM
2 34 35
@<TRIPOS>COMMENT
> <Gold.Version>
2022.2.0

> <Gold.Id.Protein>
3pbl|protein|mol2

> <Gold.Protein.RotatedTorsions>
[ 1303 1298 1297 1294 ] final  157.14 input  179.99 | X-H torsion
[ 2461 2456 2455 2452 ] final   -7.27 input   30.03 | X-H torsion
[ 2515 2510 2509 2506 ] final   94.74 input  -89.99 | X-H torsion
[ 3721 3712 3711 3710 ] final  -25.46 input -179.91 | X-H torsion
[ 3841 3832 3831 3830 ] final  -23.01 input -179.91 | X-H torsion
[ 3767 3762 3761 3758 ] final  -43.29 input  -89.99 | X-H torsion
[ 2472 2467 2466 2463 ] final  -15.77 input  -89.97 | X-H torsion

> <Gold.Protein.ActiveResidues>
 VAL82   VAL86   LEU89   PHE106  VAL107  ASP110  VAL111  MET112  CYS114  THR115 
 CYS181  SER182  ILE183  PHE188  VAL189  ILE190  SER192  SER193  SER196  TRP342 
 PHE345  PHE346  HIS349  VAL350  TYR365  THR369  GLY372  TYR373 

> <Gold.Protein.RotatedAtoms>
    4.9115   -9.2042    4.8480 H   0  0  0  0  0  0  0  0  0  0  0  0  # atno 1303 bound_to 1298
    0.9297   -8.0317    7.0353 H   0  0  0  0  0  0  0  0  0  0  0  0  # atno 2461 bound_to 2456
   -3.6832   -4.9433    8.2951 H   0  0  0  0  0  0  0  0  0  0  0  0  # atno 2472 bound_to 2467
    2.0361   -7.7941    5.8890 H   0  0  0  0  0  0  0  0  0  0  0  0  # atno 2515 bound_to 2510
   -2.5793  -17.7480   14.5484 H   0  0  0  0  0  0  0  0  0  0  0  0  # atno 3721 bound_to 3712
   -5.5098  -22.2084   10.5840 H   0  0  0  0  0  0  0  0  0  0  0  0  # atno 3767 bound_to 3762
    1.5918  -20.2141    9.4041 H   0  0  0  0  0  0  0  0  0  0  0  0  # atno 3841 bound_to 3832
    3.7128  -10.2226    4.4095 LP  0  0  0  0  0  0  0  0  0  0  0  0  # atno 4297 bound_to 1298
    3.7376   -8.6946    3.8339 LP  0  0  0  0  0  0  0  0  0  0  0  0  # atno 4298 bound_to 1298
    0.6601   -9.2175    8.1256 LP  0  0  0  0  0  0  0  0  0  0  0  0  # atno 4299 bound_to 2456
    2.1479   -8.5588    7.9870 LP  0  0  0  0  0  0  0  0  0  0  0  0  # atno 4300 bound_to 2456
    2.6963   -7.9520    4.4041 LP  0  0  0  0  0  0  0  0  0  0  0  0  # atno 4301 bound_to 2510
    2.5645   -9.2533    5.3818 LP  0  0  0  0  0  0  0  0  0  0  0  0  # atno 4302 bound_to 2510
   -3.5467  -16.5612   14.0652 LP  0  0  0  0  0  0  0  0  0  0  0  0  # atno 4306 bound_to 3712
   -3.0032  -17.6747   13.0015 LP  0  0  0  0  0  0  0  0  0  0  0  0  # atno 4307 bound_to 3712
    2.4905  -19.7799    8.1472 LP  0  0  0  0  0  0  0  0  0  0  0  0  # atno 4314 bound_to 3832
    2.9001  -21.0751    9.0533 LP  0  0  0  0  0  0  0  0  0  0  0  0  # atno 4315 bound_to 3832
   -4.2694  -22.3345   11.6387 LP  0  0  0  0  0  0  0  0  0  0  0  0  # atno 4318 bound_to 3762
   -4.3484  -23.3320   10.3482 LP  0  0  0  0  0  0  0  0  0  0  0  0  # atno 4319 bound_to 3762
   -4.7583   -5.4623    9.4093 LP  0  0  0  0  0  0  0  0  0  0  0  0  # atno 4320 bound_to 2467
   -5.2753   -4.9878    7.9348 LP  0  0  0  0  0  0  0  0  0  0  0  0  # atno 4321 bound_to 2467

> <Gold.Score>
     Score     S(PLP)   S(hbond)     S(cho)   S(metal)  DE(clash)   DE(tors)     intcor
     57.57     -48.70       4.00       0.00       0.00       0.00       3.05       2.98

> <Gold.PLP.Fitness>
57.5744

> <Gold.PLP.PLP>
-48.7010

> <Gold.PLP.part.hbond>
-4.0000

> <Gold.PLP.part.metal>
0.0000

> <Gold.PLP.part.buried>
-6.0681

> <Gold.PLP.part.nonpolar>
-39.9588

> <Gold.PLP.part.repulsive>
0.7232

> <Gold.PLP.ligand.clash>
0.0043

> <Gold.PLP.ligand.torsion>
3.0521

> <Gold.PLP.Chemscore.Hbond>
4.0000

> <Gold.PLP.Chemscore.CHOScore>
0.0000

> <Gold.PLP.Chemscore.Metal>
0.0000

> <Gold.Chemscore.Hbonds>
donor molecule, donor type, donor heavy atom, donor atom, acceptor molecule, acceptor atom, score
      L1  H     3    34       P1  1227  1.00
      P1  H  2305  2313       L1    18  1.00
      P1  H  3712  3721       L1    19  1.00
      P1  H  3832  3841       L1     7  1.00

> <Gold.PLP.Chemscore.Internal.Correction>
2.9817

