#       Name:                EN300-15782_i003
#       Creating user name   fsindt
#       Creation time:       Wed Mar  1 02:29:23 2023


#       File generated by GOLD software.
#

@<TRIPOS>MOLECULE
EN300-15782_i003|acide_3|mol2|9005|dock8
    35    35     1
SMALL
USER_CHARGES


@<TRIPOS>ATOM
      1 C1           3.4071 -17.1058  12.8712 C.3            1 <1>                0.0000
      2 C2           2.4259 -17.8322  13.7934 C.3            1 <1>                0.0000
      3 O3           2.5200 -17.2890  15.1119 O.3            1 <1>                0.0000
      4 C4           1.0008 -17.6496  13.2672 C.3            1 <1>                0.0000
      5 N5           0.8981 -18.2279  11.9251 N.pl3          1 <1>                0.0000
      6 S6          -0.3992 -19.1784  11.5301 S.o2           1 <1>                0.0000
      7 O7          -1.5470 -18.5323  12.0632 O.2            1 <1>                0.0000
      8 O8          -0.2571 -19.4991  10.1531 O.2            1 <1>                0.0000
      9 C9          -0.2248 -20.6925  12.4142 C.ar           1 <1>                0.0000
     10 C10          1.0024 -21.0470  12.9420 C.ar           1 <1>                0.0000
     11 C11          1.1393 -22.2352  13.6357 C.ar           1 <1>                0.0000
     12 C12          0.0489 -23.0680  13.8017 C.ar           1 <1>                0.0000
     13 C13          0.1983 -24.3633  14.5574 C.3            1 <1>                0.0000
     14 C14         -1.1790 -22.7128  13.2748 C.ar           1 <1>                0.0000
     15 C15         -2.3679 -23.6207  13.4561 C.3            1 <1>                0.0000
     16 C16         -1.3166 -21.5232  12.5847 C.ar           1 <1>                0.0000
     17 C17          0.6719 -16.1802  13.2075 C.2            1 <1>                0.0000
     18 O18          0.3206 -15.5927  14.2165 O.co2          1 <1>                0.0000
     19 O19          0.7570 -15.5788  12.1504 O.co2          1 <1>               -1.0000
     20 H20          4.4223 -17.2358  13.2462 H              1 <1>                0.0000
     21 H21          3.3352 -17.5202  11.8656 H              1 <1>                0.0000
     22 H22          3.1627 -16.0439  12.8449 H              1 <1>                0.0000
     23 H23          2.6702 -18.8942  13.8198 H              1 <1>                0.0000
     24 H24          0.3002 -18.1521  13.9340 H              1 <1>                0.0000
     25 H25          1.8545 -20.3961  12.8124 H              1 <1>                0.0000
     26 H26          2.0984 -22.5125  14.0476 H              1 <1>                0.0000
     27 H27         -0.0018 -24.1921  15.6150 H              1 <1>                0.0000
     28 H28         -0.5092 -25.0951  14.1675 H              1 <1>                0.0000
     29 H29          1.2141 -24.7397  14.4360 H              1 <1>                0.0000
     30 H30         -2.8903 -23.3560  14.3755 H              1 <1>                0.0000
     31 H31         -3.0440 -23.5078  12.6087 H              1 <1>                0.0000
     32 H32         -2.0294 -24.6551  13.5157 H              1 <1>                0.0000
     33 H33         -2.2759 -21.2456  12.1732 H              1 <1>                0.0000
     34 H34          3.3887 -16.9217  15.3248 H              1 <1>                0.0000
     35 H35          1.5899 -18.0541  11.2677 H              1 <1>                0.0000
@<TRIPOS>BOND
    1    1    2 1     
    2    1   20 1     
    3    1   21 1     
    4    1   22 1     
    5    2    3 1     
    6    2    4 1     
    7    2   23 1     
    8    3   34 1     
    9    4    5 1     
   10    4   17 1     
   11    4   24 1     
   12    5    6 1     
   13    5   35 1     
   14    6    7 2     
   15    6    8 2     
   16    6    9 1     
   17    9   10 ar    
   18    9   16 ar    
   19   10   11 ar    
   20   10   25 1     
   21   11   12 ar    
   22   11   26 1     
   23   12   13 1     
   24   12   14 ar    
   25   13   27 1     
   26   13   28 1     
   27   13   29 1     
   28   14   15 1     
   29   14   16 ar    
   30   15   30 1     
   31   15   31 1     
   32   15   32 1     
   33   16   33 1     
   34   17   18 ar    
   35   17   19 ar    
@<TRIPOS>SUBSTRUCTURE
      1 ****           1
@<TRIPOS>SET
DONOR_HYDROGENS      STATIC     ATOMS    <user>   **** ""
2 34 35
ATOM$RED        STATIC     ATOMS    COLORGROUP SYSTEM
2 34 35
@<TRIPOS>COMMENT
> <Gold.Version>
2022.2.0

> <Gold.Id.Protein>
3pbl|protein|mol2

> <Gold.Protein.RotatedTorsions>
[ 1303 1298 1297 1294 ] final  156.04 input  179.99 | X-H torsion
[ 2461 2456 2455 2452 ] final  -19.99 input   30.03 | X-H torsion
[ 2515 2510 2509 2506 ] final   48.26 input  -89.99 | X-H torsion
[ 3721 3712 3711 3710 ] final   71.67 input -179.91 | X-H torsion
[ 3841 3832 3831 3830 ] final  -32.10 input -179.91 | X-H torsion
[ 3767 3762 3761 3758 ] final -128.04 input  -89.99 | X-H torsion
[ 2472 2467 2466 2463 ] final -142.38 input  -89.97 | X-H torsion

> <Gold.Protein.ActiveResidues>
 VAL82   VAL86   LEU89   PHE106  VAL107  ASP110  VAL111  MET112  CYS114  THR115 
 CYS181  SER182  ILE183  PHE188  VAL189  ILE190  SER192  SER193  SER196  TRP342 
 PHE345  PHE346  HIS349  VAL350  TYR365  THR369  GLY372  TYR373 

> <Gold.Protein.RotatedAtoms>
    4.9111   -9.2211    4.8543 H   0  0  0  0  0  0  0  0  0  0  0  0  # atno 1303 bound_to 1298
    0.7482   -8.1295    7.0697 H   0  0  0  0  0  0  0  0  0  0  0  0  # atno 2461 bound_to 2456
   -4.8629   -5.4639    9.3793 H   0  0  0  0  0  0  0  0  0  0  0  0  # atno 2472 bound_to 2467
    2.2146   -7.4173    5.2731 H   0  0  0  0  0  0  0  0  0  0  0  0  # atno 2515 bound_to 2510
   -2.6587  -17.8103   13.2535 H   0  0  0  0  0  0  0  0  0  0  0  0  # atno 3721 bound_to 3712
   -4.7368  -22.0130   11.5738 H   0  0  0  0  0  0  0  0  0  0  0  0  # atno 3767 bound_to 3762
    1.5670  -20.1062    9.3229 H   0  0  0  0  0  0  0  0  0  0  0  0  # atno 3841 bound_to 3832
    3.6999  -10.2168    4.3983 LP  0  0  0  0  0  0  0  0  0  0  0  0  # atno 4297 bound_to 1298
    3.7509   -8.6835    3.8388 LP  0  0  0  0  0  0  0  0  0  0  0  0  # atno 4298 bound_to 1298
    0.8293   -9.2694    8.2366 LP  0  0  0  0  0  0  0  0  0  0  0  0  # atno 4299 bound_to 2456
    2.1600   -8.4091    7.8417 LP  0  0  0  0  0  0  0  0  0  0  0  0  # atno 4300 bound_to 2456
    2.8354   -8.6816    4.4474 LP  0  0  0  0  0  0  0  0  0  0  0  0  # atno 4301 bound_to 2510
    2.2467   -8.9006    5.9547 LP  0  0  0  0  0  0  0  0  0  0  0  0  # atno 4302 bound_to 2510
   -2.8913  -17.5869   14.8264 LP  0  0  0  0  0  0  0  0  0  0  0  0  # atno 4306 bound_to 3712
   -3.5669  -16.5771   13.7353 LP  0  0  0  0  0  0  0  0  0  0  0  0  # atno 4307 bound_to 3712
    2.6200  -19.8584    8.1373 LP  0  0  0  0  0  0  0  0  0  0  0  0  # atno 4314 bound_to 3832
    2.7992  -21.1212    9.1570 LP  0  0  0  0  0  0  0  0  0  0  0  0  # atno 4315 bound_to 3832
   -4.0011  -23.2442   10.7930 LP  0  0  0  0  0  0  0  0  0  0  0  0  # atno 4318 bound_to 3762
   -5.3895  -22.6177   10.2045 LP  0  0  0  0  0  0  0  0  0  0  0  0  # atno 4319 bound_to 3762
   -5.1992   -4.9543    7.8649 LP  0  0  0  0  0  0  0  0  0  0  0  0  # atno 4320 bound_to 2467
   -3.6549   -4.9755    8.3951 LP  0  0  0  0  0  0  0  0  0  0  0  0  # atno 4321 bound_to 2467

> <Gold.Score>
     Score     S(PLP)   S(hbond)     S(cho)   S(metal)  DE(clash)   DE(tors)     intcor
     53.70     -43.78       4.00       0.00       0.00       0.00       2.53       2.98

> <Gold.PLP.Fitness>
53.6963

> <Gold.PLP.PLP>
-43.7840

> <Gold.PLP.part.hbond>
-4.0000

> <Gold.PLP.part.metal>
0.0000

> <Gold.PLP.part.buried>
-4.4122

> <Gold.PLP.part.nonpolar>
-37.0154

> <Gold.PLP.part.repulsive>
0.2343

> <Gold.PLP.ligand.clash>
0.0000

> <Gold.PLP.ligand.torsion>
2.5347

> <Gold.PLP.Chemscore.Hbond>
4.0000

> <Gold.PLP.Chemscore.CHOScore>
0.0000

> <Gold.PLP.Chemscore.Metal>
0.0000

> <Gold.Chemscore.Hbonds>
donor molecule, donor type, donor heavy atom, donor atom, acceptor molecule, acceptor atom, score
      L1  H     5    35       P1  1227  1.00
      P1  H  2305  2313       L1    18  1.00
      P1  H  3712  3721       L1     7  1.00
      P1  H  3832  3841       L1     8  1.00

> <Gold.PLP.Chemscore.Internal.Correction>
2.9817

