#       Name:                EN300-15782_i003
#       Creating user name   fsindt
#       Creation time:       Wed Mar  1 02:29:19 2023


#       File generated by GOLD software.
#

@<TRIPOS>MOLECULE
EN300-15782_i003|acide_3|mol2|9005|dock5
    35    35     1
SMALL
USER_CHARGES


@<TRIPOS>ATOM
      1 C1           2.6308 -16.8355  13.0223 C.3            1 <1>                0.0000
      2 C2           1.7839 -17.1417  14.2592 C.3            1 <1>                0.0000
      3 O3           0.7680 -16.1463  14.3993 O.3            1 <1>                0.0000
      4 C4           1.1321 -18.5171  14.1033 C.3            1 <1>                0.0000
      5 N5           0.4670 -18.5975  12.8004 N.pl3          1 <1>                0.0000
      6 S6           0.7529 -19.8882  11.8031 S.o2           1 <1>                0.0000
      7 O7          -0.2379 -19.8364  10.7859 O.2            1 <1>                0.0000
      8 O8           2.1475 -19.8836  11.5306 O.2            1 <1>                0.0000
      9 C9           0.4330 -21.3486  12.7355 C.ar           1 <1>                0.0000
     10 C10          1.3524 -21.7871  13.6698 C.ar           1 <1>                0.0000
     11 C11          1.1014 -22.9332  14.4015 C.ar           1 <1>                0.0000
     12 C12         -0.0689 -23.6399  14.1989 C.ar           1 <1>                0.0000
     13 C13         -0.3421 -24.8893  14.9960 C.3            1 <1>                0.0000
     14 C14         -0.9891 -23.2005  13.2653 C.ar           1 <1>                0.0000
     15 C15         -2.2653 -23.9710  13.0447 C.3            1 <1>                0.0000
     16 C16         -0.7400 -22.0528  12.5366 C.ar           1 <1>                0.0000
     17 C17          0.1170 -18.7190  15.1987 C.2            1 <1>                0.0000
     18 O18          0.2579 -19.6263  16.0007 O.co2          1 <1>                0.0000
     19 O19         -0.8451 -17.9748  15.2830 O.co2          1 <1>               -1.0000
     20 H20          3.0951 -15.8556  13.1334 H              1 <1>                0.0000
     21 H21          3.4056 -17.5947  12.9155 H              1 <1>                0.0000
     22 H22          1.9951 -16.8380  12.1369 H              1 <1>                0.0000
     23 H23          2.4196 -17.1391  15.1447 H              1 <1>                0.0000
     24 H24          1.8967 -19.2910  14.1693 H              1 <1>                0.0000
     25 H25          2.2669 -21.2348  13.8282 H              1 <1>                0.0000
     26 H26          1.8201 -23.2762  15.1310 H              1 <1>                0.0000
     27 H27         -0.8732 -24.6276  15.9111 H              1 <1>                0.0000
     28 H28         -0.9524 -25.5716  14.4043 H              1 <1>                0.0000
     29 H29          0.6016 -25.3725  15.2491 H              1 <1>                0.0000
     30 H30         -3.0379 -23.5937  13.7148 H              1 <1>                0.0000
     31 H31         -2.5895 -23.8490  12.0112 H              1 <1>                0.0000
     32 H32         -2.0918 -25.0275  13.2488 H              1 <1>                0.0000
     33 H33         -1.4589 -21.7095  11.8074 H              1 <1>                0.0000
     34 H34         -0.1328 -16.4924  14.3377 H              1 <1>                0.0000
     35 H35         -0.1407 -17.8946  12.5219 H              1 <1>                0.0000
@<TRIPOS>BOND
    1    1    2 1     
    2    1   20 1     
    3    1   21 1     
    4    1   22 1     
    5    2    3 1     
    6    2    4 1     
    7    2   23 1     
    8    3   34 1     
    9    4    5 1     
   10    4   17 1     
   11    4   24 1     
   12    5    6 1     
   13    5   35 1     
   14    6    7 2     
   15    6    8 2     
   16    6    9 1     
   17    9   10 ar    
   18    9   16 ar    
   19   10   11 ar    
   20   10   25 1     
   21   11   12 ar    
   22   11   26 1     
   23   12   13 1     
   24   12   14 ar    
   25   13   27 1     
   26   13   28 1     
   27   13   29 1     
   28   14   15 1     
   29   14   16 ar    
   30   15   30 1     
   31   15   31 1     
   32   15   32 1     
   33   16   33 1     
   34   17   18 ar    
   35   17   19 ar    
@<TRIPOS>SUBSTRUCTURE
      1 ****           1
@<TRIPOS>SET
DONOR_HYDROGENS      STATIC     ATOMS    <user>   **** ""
2 34 35
ATOM$RED        STATIC     ATOMS    COLORGROUP SYSTEM
2 34 35
@<TRIPOS>COMMENT
> <Gold.Version>
2022.2.0

> <Gold.Id.Protein>
3pbl|protein|mol2

> <Gold.Protein.RotatedTorsions>
[ 1303 1298 1297 1294 ] final  105.19 input  179.99 | X-H torsion
[ 2461 2456 2455 2452 ] final   38.81 input   30.03 | X-H torsion
[ 2515 2510 2509 2506 ] final   86.74 input  -89.99 | X-H torsion
[ 3721 3712 3711 3710 ] final  -26.26 input -179.91 | X-H torsion
[ 3841 3832 3831 3830 ] final   23.41 input -179.91 | X-H torsion
[ 3767 3762 3761 3758 ] final   42.79 input  -89.99 | X-H torsion
[ 2472 2467 2466 2463 ] final -176.63 input  -89.97 | X-H torsion

> <Gold.Protein.ActiveResidues>
 VAL82   VAL86   LEU89   PHE106  VAL107  ASP110  VAL111  MET112  CYS114  THR115 
 CYS181  SER182  ILE183  PHE188  VAL189  ILE190  SER192  SER193  SER196  TRP342 
 PHE345  PHE346  HIS349  VAL350  TYR365  THR369  GLY372  TYR373 

> <Gold.Protein.RotatedAtoms>
    4.5968   -9.9637    4.9241 H   0  0  0  0  0  0  0  0  0  0  0  0  # atno 1303 bound_to 1298
    1.6455   -7.9327    7.1862 H   0  0  0  0  0  0  0  0  0  0  0  0  # atno 2461 bound_to 2456
   -5.3142   -5.3994    9.0626 H   0  0  0  0  0  0  0  0  0  0  0  0  # atno 2472 bound_to 2467
    2.0505   -7.6949    5.8041 H   0  0  0  0  0  0  0  0  0  0  0  0  # atno 2515 bound_to 2510
   -2.5833  -17.7397   14.5562 H   0  0  0  0  0  0  0  0  0  0  0  0  # atno 3721 bound_to 3712
   -4.8090  -23.1710   10.0947 H   0  0  0  0  0  0  0  0  0  0  0  0  # atno 3767 bound_to 3762
    1.9837  -20.7283    9.6219 H   0  0  0  0  0  0  0  0  0  0  0  0  # atno 3841 bound_to 3832
    3.3354   -9.6652    3.9310 LP  0  0  0  0  0  0  0  0  0  0  0  0  # atno 4297 bound_to 1298
    4.4297   -8.4922    4.2363 LP  0  0  0  0  0  0  0  0  0  0  0  0  # atno 4298 bound_to 1298
    0.3330   -8.8100    7.6044 LP  0  0  0  0  0  0  0  0  0  0  0  0  # atno 4299 bound_to 2456
    1.7594   -9.0653    8.3573 LP  0  0  0  0  0  0  0  0  0  0  0  0  # atno 4300 bound_to 2456
    2.7362   -8.0729    4.3714 LP  0  0  0  0  0  0  0  0  0  0  0  0  # atno 4301 bound_to 2510
    2.5102   -9.2317    5.4995 LP  0  0  0  0  0  0  0  0  0  0  0  0  # atno 4302 bound_to 2510
   -3.5486  -16.5599   14.0520 LP  0  0  0  0  0  0  0  0  0  0  0  0  # atno 4306 bound_to 3712
   -2.9966  -17.6856   13.0057 LP  0  0  0  0  0  0  0  0  0  0  0  0  # atno 4307 bound_to 3712
    1.8116  -19.6469    8.4485 LP  0  0  0  0  0  0  0  0  0  0  0  0  # atno 4314 bound_to 3832
    3.1263  -20.6141    8.5004 LP  0  0  0  0  0  0  0  0  0  0  0  0  # atno 4315 bound_to 3832
   -5.3484  -21.9585   11.0465 LP  0  0  0  0  0  0  0  0  0  0  0  0  # atno 4318 bound_to 3762
   -3.9700  -22.7458   11.4296 LP  0  0  0  0  0  0  0  0  0  0  0  0  # atno 4319 bound_to 3762
   -4.6981   -4.8264    7.6631 LP  0  0  0  0  0  0  0  0  0  0  0  0  # atno 4320 bound_to 2467
   -3.7047   -5.1678    8.9135 LP  0  0  0  0  0  0  0  0  0  0  0  0  # atno 4321 bound_to 2467

> <Gold.Score>
     Score     S(PLP)   S(hbond)     S(cho)   S(metal)  DE(clash)   DE(tors)     intcor
     57.63     -49.97       2.72       0.00       0.00       0.00       1.74       2.99

> <Gold.PLP.Fitness>
57.6305

> <Gold.PLP.PLP>
-49.9673

> <Gold.PLP.part.hbond>
-3.3996

> <Gold.PLP.part.metal>
0.0000

> <Gold.PLP.part.buried>
-7.5083

> <Gold.PLP.part.nonpolar>
-40.0994

> <Gold.PLP.part.repulsive>
0.9454

> <Gold.PLP.ligand.clash>
0.0000

> <Gold.PLP.ligand.torsion>
1.7369

> <Gold.PLP.Chemscore.Hbond>
2.7168

> <Gold.PLP.Chemscore.CHOScore>
0.0000

> <Gold.PLP.Chemscore.Metal>
0.0000

> <Gold.Chemscore.Hbonds>
donor molecule, donor type, donor heavy atom, donor atom, acceptor molecule, acceptor atom, score
      P1  H  2305  2313       L1     3  1.00
      P1  H  3712  3721       L1    19  1.00
      P1  H  3832  3841       L1     8  0.72

> <Gold.PLP.Chemscore.Internal.Correction>
2.9865

