#       Name:                EN300-15782_i003
#       Creating user name   fsindt
#       Creation time:       Wed Mar  1 02:29:37 2023


#       File generated by GOLD software.
#

@<TRIPOS>MOLECULE
EN300-15782_i003|acide_3|mol2|9005|dock17
    35    35     1
SMALL
USER_CHARGES


@<TRIPOS>ATOM
      1 C1          -0.7299 -17.9233   8.8213 C.3            1 <1>                0.0000
      2 C2          -0.7098 -18.4976  10.2392 C.3            1 <1>                0.0000
      3 O3           0.3486 -19.4512  10.3520 O.3            1 <1>                0.0000
      4 C4          -0.4862 -17.3662  11.2447 C.3            1 <1>                0.0000
      5 N5           0.7805 -16.6927  10.9481 N.pl3          1 <1>                0.0000
      6 S6           0.9977 -15.1093  11.3817 S.o2           1 <1>                0.0000
      7 O7          -0.1361 -14.7466  12.1577 O.2            1 <1>                0.0000
      8 O8           2.3320 -15.0033  11.8588 O.2            1 <1>                0.0000
      9 C9           0.9190 -14.1490   9.9065 C.ar           1 <1>                0.0000
     10 C10          1.6009 -14.5606   8.7770 C.ar           1 <1>                0.0000
     11 C11          1.5392 -13.8070   7.6194 C.ar           1 <1>                0.0000
     12 C12          0.7953 -12.6425   7.5917 C.ar           1 <1>                0.0000
     13 C13          0.7285 -11.8210   6.3301 C.3            1 <1>                0.0000
     14 C14          0.1122 -12.2315   8.7212 C.ar           1 <1>                0.0000
     15 C15         -0.6992 -10.9620   8.6909 C.3            1 <1>                0.0000
     16 C16          0.1708 -12.9869   9.8773 C.ar           1 <1>                0.0000
     17 C17         -0.4378 -17.9358  12.6391 C.2            1 <1>                0.0000
     18 O18          0.4554 -17.6072  13.4012 O.co2          1 <1>                0.0000
     19 O19         -1.2919 -18.7251  13.0052 O.co2          1 <1>               -1.0000
     20 H20         -0.8891 -18.7293   8.1050 H              1 <1>                0.0000
     21 H21         -1.5371 -17.1959   8.7353 H              1 <1>                0.0000
     22 H22          0.2224 -17.4354   8.6134 H              1 <1>                0.0000
     23 H23         -1.6621 -18.9856  10.4471 H              1 <1>                0.0000
     24 H24         -1.3043 -16.6496  11.1731 H              1 <1>                0.0000
     25 H25          2.1821 -15.4706   8.7986 H              1 <1>                0.0000
     26 H26          2.0725 -14.1283   6.7369 H              1 <1>                0.0000
     27 H27         -0.1116 -12.1564   5.7221 H              1 <1>                0.0000
     28 H28          0.5943 -10.7703   6.5874 H              1 <1>                0.0000
     29 H29          1.6548 -11.9419   5.7683 H              1 <1>                0.0000
     30 H30         -1.7187 -11.1897   8.3795 H              1 <1>                0.0000
     31 H31         -0.7141 -10.5164   9.6855 H              1 <1>                0.0000
     32 H32         -0.2518 -10.2617   7.9855 H              1 <1>                0.0000
     33 H33         -0.3630 -12.6658  10.7596 H              1 <1>                0.0000
     34 H34          0.6762 -19.7774   9.5028 H              1 <1>                0.0000
     35 H35          1.4921 -17.1741  10.4977 H              1 <1>                0.0000
@<TRIPOS>BOND
    1    1    2 1     
    2    1   20 1     
    3    1   21 1     
    4    1   22 1     
    5    2    3 1     
    6    2    4 1     
    7    2   23 1     
    8    3   34 1     
    9    4    5 1     
   10    4   17 1     
   11    4   24 1     
   12    5    6 1     
   13    5   35 1     
   14    6    7 2     
   15    6    8 2     
   16    6    9 1     
   17    9   10 ar    
   18    9   16 ar    
   19   10   11 ar    
   20   10   25 1     
   21   11   12 ar    
   22   11   26 1     
   23   12   13 1     
   24   12   14 ar    
   25   13   27 1     
   26   13   28 1     
   27   13   29 1     
   28   14   15 1     
   29   14   16 ar    
   30   15   30 1     
   31   15   31 1     
   32   15   32 1     
   33   16   33 1     
   34   17   18 ar    
   35   17   19 ar    
@<TRIPOS>SUBSTRUCTURE
      1 ****           1
@<TRIPOS>SET
DONOR_HYDROGENS      STATIC     ATOMS    <user>   **** ""
2 34 35
ATOM$RED        STATIC     ATOMS    COLORGROUP SYSTEM
2 34 35
@<TRIPOS>COMMENT
> <Gold.Version>
2022.2.0

> <Gold.Id.Protein>
3pbl|protein|mol2

> <Gold.Protein.RotatedTorsions>
[ 1303 1298 1297 1294 ] final  162.95 input  179.99 | X-H torsion
[ 2461 2456 2455 2452 ] final   -9.37 input   30.03 | X-H torsion
[ 2515 2510 2509 2506 ] final  121.34 input  -89.99 | X-H torsion
[ 3721 3712 3711 3710 ] final   67.07 input -179.91 | X-H torsion
[ 3841 3832 3831 3830 ] final  113.49 input -179.91 | X-H torsion
[ 3767 3762 3761 3758 ] final -158.97 input  -89.99 | X-H torsion
[ 2472 2467 2466 2463 ] final  -37.96 input  -89.97 | X-H torsion

> <Gold.Protein.ActiveResidues>
 VAL82   VAL86   LEU89   PHE106  VAL107  ASP110  VAL111  MET112  CYS114  THR115 
 CYS181  SER182  ILE183  PHE188  VAL189  ILE190  SER192  SER193  SER196  TRP342 
 PHE345  PHE346  HIS349  VAL350  TYR365  THR369  GLY372  TYR373 

> <Gold.Protein.RotatedAtoms>
    4.9089   -9.1158    4.8119 H   0  0  0  0  0  0  0  0  0  0  0  0  # atno 1303 bound_to 1298
    0.8984   -8.0461    7.0387 H   0  0  0  0  0  0  0  0  0  0  0  0  # atno 2461 bound_to 2456
   -3.6363   -5.0608    8.6352 H   0  0  0  0  0  0  0  0  0  0  0  0  # atno 2472 bound_to 2467
    2.0439   -8.1874    6.0714 H   0  0  0  0  0  0  0  0  0  0  0  0  # atno 2515 bound_to 2510
   -2.6307  -17.8516   13.3020 H   0  0  0  0  0  0  0  0  0  0  0  0  # atno 3721 bound_to 3712
   -4.3206  -22.2859   11.6465 H   0  0  0  0  0  0  0  0  0  0  0  0  # atno 3767 bound_to 3762
    3.0447  -20.7805    9.0116 H   0  0  0  0  0  0  0  0  0  0  0  0  # atno 3841 bound_to 3832
    3.7835  -10.2480    4.4686 LP  0  0  0  0  0  0  0  0  0  0  0  0  # atno 4297 bound_to 1298
    3.6695   -8.7576    3.8110 LP  0  0  0  0  0  0  0  0  0  0  0  0  # atno 4298 bound_to 1298
    0.6863   -9.2282    8.1455 LP  0  0  0  0  0  0  0  0  0  0  0  0  # atno 4299 bound_to 2456
    2.1530   -8.5337    7.9637 LP  0  0  0  0  0  0  0  0  0  0  0  0  # atno 4300 bound_to 2456
    2.5317   -7.6150    4.6222 LP  0  0  0  0  0  0  0  0  0  0  0  0  # atno 4301 bound_to 2510
    2.7213   -9.1967    4.9813 LP  0  0  0  0  0  0  0  0  0  0  0  0  # atno 4302 bound_to 2510
   -2.9271  -17.5215   14.8451 LP  0  0  0  0  0  0  0  0  0  0  0  0  # atno 4306 bound_to 3712
   -3.5634  -16.5948   13.6606 LP  0  0  0  0  0  0  0  0  0  0  0  0  # atno 4307 bound_to 3712
    1.5141  -20.5348    9.4277 LP  0  0  0  0  0  0  0  0  0  0  0  0  # atno 4314 bound_to 3832
    2.1981  -19.6659    8.2262 LP  0  0  0  0  0  0  0  0  0  0  0  0  # atno 4315 bound_to 3832
   -4.2954  -23.3355   10.3956 LP  0  0  0  0  0  0  0  0  0  0  0  0  # atno 4318 bound_to 3762
   -5.5112  -22.2535   10.5292 LP  0  0  0  0  0  0  0  0  0  0  0  0  # atno 4319 bound_to 3762
   -5.0916   -5.4477    9.2668 LP  0  0  0  0  0  0  0  0  0  0  0  0  # atno 4320 bound_to 2467
   -4.9888   -4.8851    7.7372 LP  0  0  0  0  0  0  0  0  0  0  0  0  # atno 4321 bound_to 2467

> <Gold.Score>
     Score     S(PLP)   S(hbond)     S(cho)   S(metal)  DE(clash)   DE(tors)     intcor
     53.64     -46.71       2.82       0.00       0.00       0.00       2.26       2.98

> <Gold.PLP.Fitness>
53.6407

> <Gold.PLP.PLP>
-46.7141

> <Gold.PLP.part.hbond>
-3.4744

> <Gold.PLP.part.metal>
0.0000

> <Gold.PLP.part.buried>
-1.3781

> <Gold.PLP.part.nonpolar>
-43.8444

> <Gold.PLP.part.repulsive>
0.2266

> <Gold.PLP.ligand.clash>
0.0000

> <Gold.PLP.ligand.torsion>
2.2613

> <Gold.PLP.Chemscore.Hbond>
2.8225

> <Gold.PLP.Chemscore.CHOScore>
0.0000

> <Gold.PLP.Chemscore.Metal>
0.0000

> <Gold.Chemscore.Hbonds>
donor molecule, donor type, donor heavy atom, donor atom, acceptor molecule, acceptor atom, score
      L1  H     3    34       P1  3832  0.88
      L1  H     5    35       P1  1227  0.94
      P1  H  3712  3721       L1    19  1.00

> <Gold.PLP.Chemscore.Internal.Correction>
2.9817

