#       Name:                EN300-15782_i003
#       Creating user name   fsindt
#       Creation time:       Wed Mar  1 02:29:22 2023


#       File generated by GOLD software.
#

@<TRIPOS>MOLECULE
EN300-15782_i003|acide_3|mol2|9005|dock7
    35    35     1
SMALL
USER_CHARGES


@<TRIPOS>ATOM
      1 C1           1.5404 -20.7797  14.5262 C.3            1 <1>                0.0000
      2 C2           0.7784 -19.4636  14.6940 C.3            1 <1>                0.0000
      3 O3           1.4958 -18.6082  15.5861 O.3            1 <1>                0.0000
      4 C4           0.6377 -18.7785  13.3332 C.3            1 <1>                0.0000
      5 N5          -0.2659 -17.6318  13.4549 N.pl3          1 <1>                0.0000
      6 S6           0.3437 -16.1295  13.7917 S.o2           1 <1>                0.0000
      7 O7          -0.5261 -15.5501  14.7544 O.2            1 <1>                0.0000
      8 O8           1.7377 -16.3012  14.0076 O.2            1 <1>                0.0000
      9 C9           0.1825 -15.1610  12.3286 C.ar           1 <1>                0.0000
     10 C10          0.9339 -15.4687  11.2101 C.ar           1 <1>                0.0000
     11 C11          0.8073 -14.7087  10.0620 C.ar           1 <1>                0.0000
     12 C12         -0.0707 -13.6419  10.0327 C.ar           1 <1>                0.0000
     13 C13         -0.2082 -12.8133   8.7814 C.3            1 <1>                0.0000
     14 C14         -0.8233 -13.3350  11.1511 C.ar           1 <1>                0.0000
     15 C15         -1.7811 -12.1720  11.1190 C.3            1 <1>                0.0000
     16 C16         -0.6997 -14.0971  12.2976 C.ar           1 <1>                0.0000
     17 C17          0.0760 -19.7569  12.3340 C.2            1 <1>                0.0000
     18 O18          0.7001 -20.0184  11.3198 O.co2          1 <1>                0.0000
     19 O19         -1.0024 -20.2870  12.5399 O.co2          1 <1>               -1.0000
     20 H20          1.6407 -21.2677  15.4956 H              1 <1>                0.0000
     21 H21          0.9932 -21.4321  13.8457 H              1 <1>                0.0000
     22 H22          2.5303 -20.5768  14.1175 H              1 <1>                0.0000
     23 H23         -0.2116 -19.6665  15.1028 H              1 <1>                0.0000
     24 H24          1.6160 -18.4362  12.9960 H              1 <1>                0.0000
     25 H25          1.6200 -16.3024  11.2330 H              1 <1>                0.0000
     26 H26          1.3950 -14.9487   9.1882 H              1 <1>                0.0000
     27 H27         -0.9881 -13.2372   8.1488 H              1 <1>                0.0000
     28 H28         -0.4740 -11.7909   9.0500 H              1 <1>                0.0000
     29 H29          0.7381 -12.8125   8.2404 H              1 <1>                0.0000
     30 H30         -2.7585 -12.5154  10.7801 H              1 <1>                0.0000
     31 H31         -1.8717 -11.7481  12.1191 H              1 <1>                0.0000
     32 H32         -1.4060 -11.4112  10.4344 H              1 <1>                0.0000
     33 H33         -1.2877 -13.8573  13.1712 H              1 <1>                0.0000
     34 H34          1.9356 -19.0748  16.3098 H              1 <1>                0.0000
     35 H35         -1.2212 -17.7526  13.3381 H              1 <1>                0.0000
@<TRIPOS>BOND
    1    1    2 1     
    2    1   20 1     
    3    1   21 1     
    4    1   22 1     
    5    2    3 1     
    6    2    4 1     
    7    2   23 1     
    8    3   34 1     
    9    4    5 1     
   10    4   17 1     
   11    4   24 1     
   12    5    6 1     
   13    5   35 1     
   14    6    7 2     
   15    6    8 2     
   16    6    9 1     
   17    9   10 ar    
   18    9   16 ar    
   19   10   11 ar    
   20   10   25 1     
   21   11   12 ar    
   22   11   26 1     
   23   12   13 1     
   24   12   14 ar    
   25   13   27 1     
   26   13   28 1     
   27   13   29 1     
   28   14   15 1     
   29   14   16 ar    
   30   15   30 1     
   31   15   31 1     
   32   15   32 1     
   33   16   33 1     
   34   17   18 ar    
   35   17   19 ar    
@<TRIPOS>SUBSTRUCTURE
      1 ****           1
@<TRIPOS>SET
DONOR_HYDROGENS      STATIC     ATOMS    <user>   **** ""
2 34 35
ATOM$RED        STATIC     ATOMS    COLORGROUP SYSTEM
2 34 35
@<TRIPOS>COMMENT
> <Gold.Version>
2022.2.0

> <Gold.Id.Protein>
3pbl|protein|mol2

> <Gold.Protein.RotatedTorsions>
[ 1303 1298 1297 1294 ] final  -43.58 input  179.99 | X-H torsion
[ 2461 2456 2455 2452 ] final -171.19 input   30.03 | X-H torsion
[ 2515 2510 2509 2506 ] final -102.69 input  -89.99 | X-H torsion
[ 3721 3712 3711 3710 ] final -145.26 input -179.91 | X-H torsion
[ 3841 3832 3831 3830 ] final    0.11 input -179.91 | X-H torsion
[ 3767 3762 3761 3758 ] final  -22.54 input  -89.99 | X-H torsion
[ 2472 2467 2466 2463 ] final   29.54 input  -89.97 | X-H torsion

> <Gold.Protein.ActiveResidues>
 VAL82   VAL86   LEU89   PHE106  VAL107  ASP110  VAL111  MET112  CYS114  THR115 
 CYS181  SER182  ILE183  PHE188  VAL189  ILE190  SER192  SER193  SER196  TRP342 
 PHE345  PHE346  HIS349  VAL350  TYR365  THR369  GLY372  TYR373 

> <Gold.Protein.RotatedAtoms>
    3.3857   -9.2203    3.7940 H   0  0  0  0  0  0  0  0  0  0  0  0  # atno 1303 bound_to 1298
    1.3118   -9.2567    8.3924 H   0  0  0  0  0  0  0  0  0  0  0  0  # atno 2461 bound_to 2456
   -4.1592   -4.8044    7.7644 H   0  0  0  0  0  0  0  0  0  0  0  0  # atno 2472 bound_to 2467
    2.7876   -9.0722    4.7607 H   0  0  0  0  0  0  0  0  0  0  0  0  # atno 2515 bound_to 2510
   -3.3161  -16.5380   14.0591 H   0  0  0  0  0  0  0  0  0  0  0  0  # atno 3721 bound_to 3712
   -5.4740  -22.4395   10.3377 H   0  0  0  0  0  0  0  0  0  0  0  0  # atno 3767 bound_to 3762
    1.7377  -20.4880    9.5591 H   0  0  0  0  0  0  0  0  0  0  0  0  # atno 3841 bound_to 3832
    4.7423   -8.6840    4.5279 LP  0  0  0  0  0  0  0  0  0  0  0  0  # atno 4297 bound_to 1298
    4.2344  -10.2171    4.7699 LP  0  0  0  0  0  0  0  0  0  0  0  0  # atno 4298 bound_to 1298
    2.0036   -8.0963    7.4746 LP  0  0  0  0  0  0  0  0  0  0  0  0  # atno 4299 bound_to 2456
    0.4224   -8.4554    7.2814 LP  0  0  0  0  0  0  0  0  0  0  0  0  # atno 4300 bound_to 2456
    2.0887   -8.4442    6.0960 LP  0  0  0  0  0  0  0  0  0  0  0  0  # atno 4301 bound_to 2510
    2.4202   -7.4824    4.8187 LP  0  0  0  0  0  0  0  0  0  0  0  0  # atno 4302 bound_to 2510
   -2.9805  -17.7121   13.0166 LP  0  0  0  0  0  0  0  0  0  0  0  0  # atno 4306 bound_to 3712
   -2.7187  -17.9208   14.6149 LP  0  0  0  0  0  0  0  0  0  0  0  0  # atno 4307 bound_to 3712
    2.1429  -19.6535    8.2493 LP  0  0  0  0  0  0  0  0  0  0  0  0  # atno 4314 bound_to 3832
    3.0791  -20.8850    8.7722 LP  0  0  0  0  0  0  0  0  0  0  0  0  # atno 4315 bound_to 3832
   -4.5355  -22.1236   11.6363 LP  0  0  0  0  0  0  0  0  0  0  0  0  # atno 4318 bound_to 3762
   -4.1181  -23.3119   10.5968 LP  0  0  0  0  0  0  0  0  0  0  0  0  # atno 4319 bound_to 3762
   -4.0497   -5.3454    9.3012 LP  0  0  0  0  0  0  0  0  0  0  0  0  # atno 4320 bound_to 2467
   -5.5080   -5.2436    8.5734 LP  0  0  0  0  0  0  0  0  0  0  0  0  # atno 4321 bound_to 2467

> <Gold.Score>
     Score     S(PLP)   S(hbond)     S(cho)   S(metal)  DE(clash)   DE(tors)     intcor
     50.82     -42.07       3.25       0.00       0.00       0.00       1.99       2.99

> <Gold.PLP.Fitness>
50.8223

> <Gold.PLP.PLP>
-42.0729

> <Gold.PLP.part.hbond>
-3.9673

> <Gold.PLP.part.metal>
0.0000

> <Gold.PLP.part.buried>
-2.7852

> <Gold.PLP.part.nonpolar>
-35.6945

> <Gold.PLP.part.repulsive>
0.2371

> <Gold.PLP.ligand.clash>
0.0000

> <Gold.PLP.ligand.torsion>
1.9917

> <Gold.PLP.Chemscore.Hbond>
3.2488

> <Gold.PLP.Chemscore.CHOScore>
0.0000

> <Gold.PLP.Chemscore.Metal>
0.0000

> <Gold.Chemscore.Hbonds>
donor molecule, donor type, donor heavy atom, donor atom, acceptor molecule, acceptor atom, score
      L1  H     3    34       P1  2287  0.78
      L1  H     5    35       P1  3712  0.62
      P1  H  2305  2313       L1     7  0.84
      P1  H  3832  3841       L1    18  1.00

> <Gold.PLP.Chemscore.Internal.Correction>
2.9865

