#       Name:                EN300-15782_i003
#       Creating user name   fsindt
#       Creation time:       Wed Mar  1 02:29:34 2023


#       File generated by GOLD software.
#

@<TRIPOS>MOLECULE
EN300-15782_i003|acide_3|mol2|9005|dock15
    35    35     1
SMALL
USER_CHARGES


@<TRIPOS>ATOM
      1 C1           0.9629 -21.2119  12.7701 C.3            1 <1>                0.0000
      2 C2           1.4406 -19.7901  12.4681 C.3            1 <1>                0.0000
      3 O3           1.6918 -19.6593  11.0673 O.3            1 <1>                0.0000
      4 C4           0.3621 -18.7895  12.8884 C.3            1 <1>                0.0000
      5 N5           0.7329 -17.4494  12.4272 N.pl3          1 <1>                0.0000
      6 S6          -0.0949 -16.1255  12.9787 S.o2           1 <1>                0.0000
      7 O7          -1.4527 -16.5251  13.1048 O.2            1 <1>                0.0000
      8 O8           0.6638 -15.5991  14.0588 O.2            1 <1>                0.0000
      9 C9          -0.0496 -14.9126  11.7013 C.ar           1 <1>                0.0000
     10 C10         -0.8299 -13.7761  11.7997 C.ar           1 <1>                0.0000
     11 C11         -0.7944 -12.8244  10.7974 C.ar           1 <1>                0.0000
     12 C12          0.0217 -13.0094   9.6974 C.ar           1 <1>                0.0000
     13 C13          0.0600 -11.9723   8.6047 C.3            1 <1>                0.0000
     14 C14          0.8032 -14.1457   9.5997 C.ar           1 <1>                0.0000
     15 C15          1.6933 -14.3472   8.4005 C.3            1 <1>                0.0000
     16 C16          0.7706 -15.0952  10.6035 C.ar           1 <1>                0.0000
     17 C17          0.2370 -18.7872  14.3902 C.2            1 <1>                0.0000
     18 O18         -0.6553 -18.1527  14.9266 O.co2          1 <1>                0.0000
     19 O19          1.0279 -19.4200  15.0688 O.co2          1 <1>               -1.0000
     20 H20          1.7312 -21.9247  12.4706 H              1 <1>                0.0000
     21 H21          0.7713 -21.3115  13.8384 H              1 <1>                0.0000
     22 H22          0.0457 -21.4122  12.2162 H              1 <1>                0.0000
     23 H23          2.3579 -19.5897  13.0219 H              1 <1>                0.0000
     24 H24         -0.5915 -19.0756  12.4448 H              1 <1>                0.0000
     25 H25         -1.4676 -13.6315  12.6593 H              1 <1>                0.0000
     26 H26         -1.4046 -11.9366  10.8739 H              1 <1>                0.0000
     27 H27          0.8343 -11.2383   8.8274 H              1 <1>                0.0000
     28 H28          0.2803 -12.4554   7.6528 H              1 <1>                0.0000
     29 H29         -0.9071 -11.4731   8.5434 H              1 <1>                0.0000
     30 H30          2.6728 -13.9115   8.5977 H              1 <1>                0.0000
     31 H31          1.8030 -15.4138   8.2044 H              1 <1>                0.0000
     32 H32          1.2481 -13.8619   7.5319 H              1 <1>                0.0000
     33 H33          1.3812 -15.9828  10.5272 H              1 <1>                0.0000
     34 H34          2.2384 -18.8963  10.8354 H              1 <1>                0.0000
     35 H35          1.4633 -17.3375  11.7988 H              1 <1>                0.0000
@<TRIPOS>BOND
    1    1    2 1     
    2    1   20 1     
    3    1   21 1     
    4    1   22 1     
    5    2    3 1     
    6    2    4 1     
    7    2   23 1     
    8    3   34 1     
    9    4    5 1     
   10    4   17 1     
   11    4   24 1     
   12    5    6 1     
   13    5   35 1     
   14    6    7 2     
   15    6    8 2     
   16    6    9 1     
   17    9   10 ar    
   18    9   16 ar    
   19   10   11 ar    
   20   10   25 1     
   21   11   12 ar    
   22   11   26 1     
   23   12   13 1     
   24   12   14 ar    
   25   13   27 1     
   26   13   28 1     
   27   13   29 1     
   28   14   15 1     
   29   14   16 ar    
   30   15   30 1     
   31   15   31 1     
   32   15   32 1     
   33   16   33 1     
   34   17   18 ar    
   35   17   19 ar    
@<TRIPOS>SUBSTRUCTURE
      1 ****           1
@<TRIPOS>SET
DONOR_HYDROGENS      STATIC     ATOMS    <user>   **** ""
2 34 35
ATOM$RED        STATIC     ATOMS    COLORGROUP SYSTEM
2 34 35
@<TRIPOS>COMMENT
> <Gold.Version>
2022.2.0

> <Gold.Id.Protein>
3pbl|protein|mol2

> <Gold.Protein.RotatedTorsions>
[ 1303 1298 1297 1294 ] final -134.66 input  179.99 | X-H torsion
[ 2461 2456 2455 2452 ] final -134.69 input   30.03 | X-H torsion
[ 2515 2510 2509 2506 ] final   88.12 input  -89.99 | X-H torsion
[ 3721 3712 3711 3710 ] final    1.43 input -179.91 | X-H torsion
[ 3841 3832 3831 3830 ] final   -2.09 input -179.91 | X-H torsion
[ 3767 3762 3761 3758 ] final  171.78 input  -89.99 | X-H torsion
[ 2472 2467 2466 2463 ] final -110.83 input  -89.97 | X-H torsion

> <Gold.Protein.ActiveResidues>
 VAL82   VAL86   LEU89   PHE106  VAL107  ASP110  VAL111  MET112  CYS114  THR115 
 CYS181  SER182  ILE183  PHE188  VAL189  ILE190  SER192  SER193  SER196  TRP342 
 PHE345  PHE346  HIS349  VAL350  TYR365  THR369  GLY372  TYR373 

> <Gold.Protein.RotatedAtoms>
    4.4275   -8.4918    4.2352 H   0  0  0  0  0  0  0  0  0  0  0  0  # atno 1303 bound_to 1298
    0.7556   -9.2517    8.1933 H   0  0  0  0  0  0  0  0  0  0  0  0  # atno 2461 bound_to 2456
   -4.3534   -5.4212    9.4164 H   0  0  0  0  0  0  0  0  0  0  0  0  # atno 2472 bound_to 2467
    2.0475   -7.7111    5.8196 H   0  0  0  0  0  0  0  0  0  0  0  0  # atno 2515 bound_to 2510
   -2.4840  -17.9647   14.2226 H   0  0  0  0  0  0  0  0  0  0  0  0  # atno 3721 bound_to 3712
   -4.0271  -22.6344   11.5082 H   0  0  0  0  0  0  0  0  0  0  0  0  # atno 3767 bound_to 3762
    1.7191  -20.4628    9.5480 H   0  0  0  0  0  0  0  0  0  0  0  0  # atno 3841 bound_to 3832
    4.5988   -9.9623    4.9243 LP  0  0  0  0  0  0  0  0  0  0  0  0  # atno 4297 bound_to 1298
    3.3357   -9.6676    3.9321 LP  0  0  0  0  0  0  0  0  0  0  0  0  # atno 4298 bound_to 1298
    2.1604   -8.4708    7.9035 LP  0  0  0  0  0  0  0  0  0  0  0  0  # atno 4299 bound_to 2456
    0.8216   -8.0858    7.0515 LP  0  0  0  0  0  0  0  0  0  0  0  0  # atno 4300 bound_to 2456
    2.7298   -8.0516    4.3758 LP  0  0  0  0  0  0  0  0  0  0  0  0  # atno 4301 bound_to 2510
    2.5197   -9.2367    5.4796 LP  0  0  0  0  0  0  0  0  0  0  0  0  # atno 4302 bound_to 2510
   -3.4337  -16.6949   14.4745 LP  0  0  0  0  0  0  0  0  0  0  0  0  # atno 4306 bound_to 3712
   -3.2261  -17.2908   12.9684 LP  0  0  0  0  0  0  0  0  0  0  0  0  # atno 4307 bound_to 3712
    2.1760  -19.6606    8.2351 LP  0  0  0  0  0  0  0  0  0  0  0  0  # atno 4314 bound_to 3832
    3.0675  -20.9071    8.7992 LP  0  0  0  0  0  0  0  0  0  0  0  0  # atno 4315 bound_to 3832
   -4.6838  -23.2357   10.1392 LP  0  0  0  0  0  0  0  0  0  0  0  0  # atno 4318 bound_to 3762
   -5.4162  -22.0050   10.9240 LP  0  0  0  0  0  0  0  0  0  0  0  0  # atno 4319 bound_to 3762
   -5.4715   -5.1277    8.2630 LP  0  0  0  0  0  0  0  0  0  0  0  0  # atno 4320 bound_to 2467
   -3.8920   -4.8447    7.9599 LP  0  0  0  0  0  0  0  0  0  0  0  0  # atno 4321 bound_to 2467

> <Gold.Score>
     Score     S(PLP)   S(hbond)     S(cho)   S(metal)  DE(clash)   DE(tors)     intcor
     55.48     -45.05       3.90       0.00       0.00       0.00       2.13       2.98

> <Gold.PLP.Fitness>
55.4802

> <Gold.PLP.PLP>
-45.0515

> <Gold.PLP.part.hbond>
-3.9176

> <Gold.PLP.part.metal>
0.0000

> <Gold.PLP.part.buried>
-4.2797

> <Gold.PLP.part.nonpolar>
-37.9095

> <Gold.PLP.part.repulsive>
0.2166

> <Gold.PLP.ligand.clash>
0.0000

> <Gold.PLP.ligand.torsion>
2.1313

> <Gold.PLP.Chemscore.Hbond>
3.9032

> <Gold.PLP.Chemscore.CHOScore>
0.0000

> <Gold.PLP.Chemscore.Metal>
0.0000

> <Gold.Chemscore.Hbonds>
donor molecule, donor type, donor heavy atom, donor atom, acceptor molecule, acceptor atom, score
      L1  H     3    34       P1  1227  0.98
      P1  H  2305  2313       L1     8  1.00
      P1  H  3712  3721       L1    18  1.00
      P1  H  3832  3841       L1     3  0.93

> <Gold.PLP.Chemscore.Internal.Correction>
2.9817

