#       Name:                EN300-15782_i003
#       Creating user name   fsindt
#       Creation time:       Wed Mar  1 02:29:39 2023


#       File generated by GOLD software.
#

@<TRIPOS>MOLECULE
EN300-15782_i003|acide_3|mol2|9005|dock18
    35    35     1
SMALL
USER_CHARGES


@<TRIPOS>ATOM
      1 C1           0.2935 -21.5524  12.0345 C.3            1 <1>                0.0000
      2 C2           1.1467 -20.3403  12.4136 C.3            1 <1>                0.0000
      3 O3           1.4716 -19.5993  11.2357 O.3            1 <1>                0.0000
      4 C4           0.3639 -19.4472  13.3783 C.3            1 <1>                0.0000
      5 N5           1.1077 -18.2061  13.6073 N.pl3          1 <1>                0.0000
      6 S6           0.3257 -16.7479  13.5407 S.o2           1 <1>                0.0000
      7 O7          -1.0006 -16.9828  13.9932 O.2            1 <1>                0.0000
      8 O8           1.1953 -15.7984  14.1421 O.2            1 <1>                0.0000
      9 C9           0.1998 -16.3006  11.8411 C.ar           1 <1>                0.0000
     10 C10          0.6202 -15.0524  11.4221 C.ar           1 <1>                0.0000
     11 C11          0.5214 -14.7014  10.0884 C.ar           1 <1>                0.0000
     12 C12          0.0027 -15.5989   9.1743 C.ar           1 <1>                0.0000
     13 C13         -0.1055 -15.2161   7.7207 C.3            1 <1>                0.0000
     14 C14         -0.4166 -16.8479   9.5932 C.ar           1 <1>                0.0000
     15 C15         -0.9817 -17.8266   8.5963 C.3            1 <1>                0.0000
     16 C16         -0.3142 -17.2002  10.9258 C.ar           1 <1>                0.0000
     17 C17          0.1739 -20.1680  14.6881 C.2            1 <1>                0.0000
     18 O18          1.1428 -20.4705  15.3635 O.co2          1 <1>                0.0000
     19 O19         -0.9486 -20.4485  15.0723 O.co2          1 <1>               -1.0000
     20 H20          0.8512 -22.1886  11.3472 H              1 <1>                0.0000
     21 H21          0.0457 -22.1176  12.9330 H              1 <1>                0.0000
     22 H22         -0.6242 -21.2145  11.5532 H              1 <1>                0.0000
     23 H23          2.0645 -20.6783  12.8950 H              1 <1>                0.0000
     24 H24         -0.6097 -19.2133  12.9478 H              1 <1>                0.0000
     25 H25          1.0255 -14.3511  12.1365 H              1 <1>                0.0000
     26 H26          0.8492 -13.7258   9.7611 H              1 <1>                0.0000
     27 H27          0.8110 -15.4970   7.2019 H              1 <1>                0.0000
     28 H28         -0.9517 -15.7349   7.2703 H              1 <1>                0.0000
     29 H29         -0.2541 -14.1393   7.6386 H              1 <1>                0.0000
     30 H30         -0.1752 -18.4355   8.1876 H              1 <1>                0.0000
     31 H31         -1.7082 -18.4709   9.0914 H              1 <1>                0.0000
     32 H32         -1.4703 -17.2814   7.7888 H              1 <1>                0.0000
     33 H33         -0.6417 -18.1760  11.2530 H              1 <1>                0.0000
     34 H34          1.8153 -18.7127  11.4112 H              1 <1>                0.0000
     35 H35          2.0583 -18.2383  13.7978 H              1 <1>                0.0000
@<TRIPOS>BOND
    1    1    2 1     
    2    1   20 1     
    3    1   21 1     
    4    1   22 1     
    5    2    3 1     
    6    2    4 1     
    7    2   23 1     
    8    3   34 1     
    9    4    5 1     
   10    4   17 1     
   11    4   24 1     
   12    5    6 1     
   13    5   35 1     
   14    6    7 2     
   15    6    8 2     
   16    6    9 1     
   17    9   10 ar    
   18    9   16 ar    
   19   10   11 ar    
   20   10   25 1     
   21   11   12 ar    
   22   11   26 1     
   23   12   13 1     
   24   12   14 ar    
   25   13   27 1     
   26   13   28 1     
   27   13   29 1     
   28   14   15 1     
   29   14   16 ar    
   30   15   30 1     
   31   15   31 1     
   32   15   32 1     
   33   16   33 1     
   34   17   18 ar    
   35   17   19 ar    
@<TRIPOS>SUBSTRUCTURE
      1 ****           1
@<TRIPOS>SET
DONOR_HYDROGENS      STATIC     ATOMS    <user>   **** ""
2 34 35
ATOM$RED        STATIC     ATOMS    COLORGROUP SYSTEM
2 34 35
@<TRIPOS>COMMENT
> <Gold.Version>
2022.2.0

> <Gold.Id.Protein>
3pbl|protein|mol2

> <Gold.Protein.RotatedTorsions>
[ 1303 1298 1297 1294 ] final  -58.81 input  179.99 | X-H torsion
[ 2461 2456 2455 2452 ] final   74.90 input   30.03 | X-H torsion
[ 2515 2510 2509 2506 ] final -115.07 input  -89.99 | X-H torsion
[ 3721 3712 3711 3710 ] final   -7.94 input -179.91 | X-H torsion
[ 3841 3832 3831 3830 ] final  -11.27 input -179.91 | X-H torsion
[ 3767 3762 3761 3758 ] final -125.46 input  -89.99 | X-H torsion
[ 2472 2467 2466 2463 ] final   -0.97 input  -89.97 | X-H torsion

> <Gold.Protein.ActiveResidues>
 VAL82   VAL86   LEU89   PHE106  VAL107  ASP110  VAL111  MET112  CYS114  THR115 
 CYS181  SER182  ILE183  PHE188  VAL189  ILE190  SER192  SER193  SER196  TRP342 
 PHE345  PHE346  HIS349  VAL350  TYR365  THR369  GLY372  TYR373 

> <Gold.Protein.RotatedAtoms>
    3.4886   -8.9931    3.7773 H   0  0  0  0  0  0  0  0  0  0  0  0  # atno 1303 bound_to 1298
    2.0541   -8.1481    7.5440 H   0  0  0  0  0  0  0  0  0  0  0  0  # atno 2461 bound_to 2456
   -3.7890   -4.8796    8.0859 H   0  0  0  0  0  0  0  0  0  0  0  0  # atno 2472 bound_to 2467
    2.7384   -9.1740    4.9296 H   0  0  0  0  0  0  0  0  0  0  0  0  # atno 2515 bound_to 2510
   -2.5076  -17.9042   14.3482 H   0  0  0  0  0  0  0  0  0  0  0  0  # atno 3721 bound_to 3712
   -4.7728  -21.9973   11.5578 H   0  0  0  0  0  0  0  0  0  0  0  0  # atno 3767 bound_to 3762
    1.6518  -20.3549    9.4931 H   0  0  0  0  0  0  0  0  0  0  0  0  # atno 3841 bound_to 3832
    4.8491   -8.8595    4.6703 LP  0  0  0  0  0  0  0  0  0  0  0  0  # atno 4297 bound_to 1298
    4.0247  -10.2688    4.6442 LP  0  0  0  0  0  0  0  0  0  0  0  0  # atno 4298 bound_to 1298
    0.4694   -8.3851    7.2276 LP  0  0  0  0  0  0  0  0  0  0  0  0  # atno 4299 bound_to 2456
    1.2145   -9.2748    8.3765 LP  0  0  0  0  0  0  0  0  0  0  0  0  # atno 4300 bound_to 2456
    2.0512   -8.2448    6.0830 LP  0  0  0  0  0  0  0  0  0  0  0  0  # atno 4301 bound_to 2510
    2.5070   -7.5799    4.6628 LP  0  0  0  0  0  0  0  0  0  0  0  0  # atno 4302 bound_to 2510
   -3.4832  -16.6291   14.3416 LP  0  0  0  0  0  0  0  0  0  0  0  0  # atno 4306 bound_to 3712
   -3.1495  -17.4265   12.9562 LP  0  0  0  0  0  0  0  0  0  0  0  0  # atno 4307 bound_to 3712
    2.3152  -19.7016    8.1857 LP  0  0  0  0  0  0  0  0  0  0  0  0  # atno 4314 bound_to 3832
    3.0061  -20.9907    8.9120 LP  0  0  0  0  0  0  0  0  0  0  0  0  # atno 4315 bound_to 3832
   -3.9849  -23.2279   10.8286 LP  0  0  0  0  0  0  0  0  0  0  0  0  # atno 4318 bound_to 3762
   -5.3698  -22.6496   10.1849 LP  0  0  0  0  0  0  0  0  0  0  0  0  # atno 4319 bound_to 3762
   -4.5173   -5.4447    9.4338 LP  0  0  0  0  0  0  0  0  0  0  0  0  # atno 4320 bound_to 2467
   -5.4105   -5.0692    8.1193 LP  0  0  0  0  0  0  0  0  0  0  0  0  # atno 4321 bound_to 2467

> <Gold.Score>
     Score     S(PLP)   S(hbond)     S(cho)   S(metal)  DE(clash)   DE(tors)     intcor
     47.77     -41.17       2.42       0.00       0.00       0.00       1.83       2.98

> <Gold.PLP.Fitness>
47.7655

> <Gold.PLP.PLP>
-41.1677

> <Gold.PLP.part.hbond>
-3.3345

> <Gold.PLP.part.metal>
0.0000

> <Gold.PLP.part.buried>
-4.7292

> <Gold.PLP.part.nonpolar>
-34.1388

> <Gold.PLP.part.repulsive>
0.1361

> <Gold.PLP.ligand.clash>
0.0000

> <Gold.PLP.ligand.torsion>
1.8274

> <Gold.PLP.Chemscore.Hbond>
2.4236

> <Gold.PLP.Chemscore.CHOScore>
0.0000

> <Gold.PLP.Chemscore.Metal>
0.0000

> <Gold.Chemscore.Hbonds>
donor molecule, donor type, donor heavy atom, donor atom, acceptor molecule, acceptor atom, score
      L1  H     3    34       P1  1227  0.12
      P1  H  2305  2313       L1     8  1.00
      P1  H  3712  3721       L1     7  0.30
      P1  H  3832  3841       L1     3  1.00

> <Gold.PLP.Chemscore.Internal.Correction>
2.9817

