#       Name:                EN300-15782_i003
#       Creating user name   fsindt
#       Creation time:       Wed Mar  1 02:29:36 2023


#       File generated by GOLD software.
#

@<TRIPOS>MOLECULE
EN300-15782_i003|acide_3|mol2|9005|dock16
    35    35     1
SMALL
USER_CHARGES


@<TRIPOS>ATOM
      1 C1           0.4173 -19.2443  14.9950 C.3            1 <1>                0.0000
      2 C2          -0.0813 -19.6711  13.6130 C.3            1 <1>                0.0000
      3 O3          -1.4947 -19.8776  13.6593 O.3            1 <1>                0.0000
      4 C4           0.2410 -18.5763  12.5939 C.3            1 <1>                0.0000
      5 N5          -0.4897 -17.3551  12.9417 N.pl3          1 <1>                0.0000
      6 S6           0.3390 -15.9598  13.2710 S.o2           1 <1>                0.0000
      7 O7          -0.2852 -15.3813  14.4089 O.2            1 <1>                0.0000
      8 O8           1.7196 -16.2934  13.2275 O.2            1 <1>                0.0000
      9 C9           0.0520 -14.8537  11.9298 C.ar           1 <1>                0.0000
     10 C10         -0.7909 -13.7709  12.0954 C.ar           1 <1>                0.0000
     11 C11         -1.0162 -12.9030  11.0429 C.ar           1 <1>                0.0000
     12 C12         -0.3982 -13.1180   9.8256 C.ar           1 <1>                0.0000
     13 C13         -0.6442 -12.1722   8.6783 C.3            1 <1>                0.0000
     14 C14          0.4459 -14.2004   9.6603 C.ar           1 <1>                0.0000
     15 C15          1.1199 -14.4345   8.3330 C.3            1 <1>                0.0000
     16 C16          0.6741 -15.0658  10.7136 C.ar           1 <1>                0.0000
     17 C17         -0.1709 -19.0336  11.2183 C.2            1 <1>                0.0000
     18 O18         -0.8857 -18.3260  10.5292 O.co2          1 <1>                0.0000
     19 O19          0.2109 -20.1111  10.7943 O.co2          1 <1>               -1.0000
     20 H20          0.1876 -20.0243  15.7210 H              1 <1>                0.0000
     21 H21          1.4953 -19.0868  14.9596 H              1 <1>                0.0000
     22 H22         -0.0758 -18.3178  15.2890 H              1 <1>                0.0000
     23 H23          0.4118 -20.5978  13.3189 H              1 <1>                0.0000
     24 H24          1.3120 -18.3744  12.6042 H              1 <1>                0.0000
     25 H25         -1.2737 -13.6029  13.0468 H              1 <1>                0.0000
     26 H26         -1.6753 -12.0573  11.1721 H              1 <1>                0.0000
     27 H27          0.0929 -11.3698   8.7045 H              1 <1>                0.0000
     28 H28         -0.5585 -12.7138   7.7362 H              1 <1>                0.0000
     29 H29         -1.6452 -11.7492   8.7644 H              1 <1>                0.0000
     30 H30          2.0787 -13.9162   8.3160 H              1 <1>                0.0000
     31 H31          1.2820 -15.5030   8.1912 H              1 <1>                0.0000
     32 H32          0.4868 -14.0535   7.5317 H              1 <1>                0.0000
     33 H33          1.3336 -15.9113  10.5844 H              1 <1>                0.0000
     34 H34         -2.0144 -19.0804  13.4883 H              1 <1>                0.0000
     35 H35         -1.4590 -17.3638  12.9791 H              1 <1>                0.0000
@<TRIPOS>BOND
    1    1    2 1     
    2    1   20 1     
    3    1   21 1     
    4    1   22 1     
    5    2    3 1     
    6    2    4 1     
    7    2   23 1     
    8    3   34 1     
    9    4    5 1     
   10    4   17 1     
   11    4   24 1     
   12    5    6 1     
   13    5   35 1     
   14    6    7 2     
   15    6    8 2     
   16    6    9 1     
   17    9   10 ar    
   18    9   16 ar    
   19   10   11 ar    
   20   10   25 1     
   21   11   12 ar    
   22   11   26 1     
   23   12   13 1     
   24   12   14 ar    
   25   13   27 1     
   26   13   28 1     
   27   13   29 1     
   28   14   15 1     
   29   14   16 ar    
   30   15   30 1     
   31   15   31 1     
   32   15   32 1     
   33   16   33 1     
   34   17   18 ar    
   35   17   19 ar    
@<TRIPOS>SUBSTRUCTURE
      1 ****           1
@<TRIPOS>SET
DONOR_HYDROGENS      STATIC     ATOMS    <user>   **** ""
2 34 35
ATOM$RED        STATIC     ATOMS    COLORGROUP SYSTEM
2 34 35
@<TRIPOS>COMMENT
> <Gold.Version>
2022.2.0

> <Gold.Id.Protein>
3pbl|protein|mol2

> <Gold.Protein.RotatedTorsions>
[ 1303 1298 1297 1294 ] final   73.31 input  179.99 | X-H torsion
[ 2461 2456 2455 2452 ] final -157.58 input   30.03 | X-H torsion
[ 2515 2510 2509 2506 ] final   55.62 input  -89.99 | X-H torsion
[ 3721 3712 3711 3710 ] final -110.47 input -179.91 | X-H torsion
[ 3841 3832 3831 3830 ] final  -28.74 input -179.91 | X-H torsion
[ 3767 3762 3761 3758 ] final  131.34 input  -89.99 | X-H torsion
[ 2472 2467 2466 2463 ] final  -53.14 input  -89.97 | X-H torsion

> <Gold.Protein.ActiveResidues>
 VAL82   VAL86   LEU89   PHE106  VAL107  ASP110  VAL111  MET112  CYS114  THR115 
 CYS181  SER182  ILE183  PHE188  VAL189  ILE190  SER192  SER193  SER196  TRP342 
 PHE345  PHE346  HIS349  VAL350  TYR365  THR369  GLY372  TYR373 

> <Gold.Protein.RotatedAtoms>
    4.1913  -10.2323    4.7465 H   0  0  0  0  0  0  0  0  0  0  0  0  # atno 1303 bound_to 1298
    1.0950   -9.2871    8.3471 H   0  0  0  0  0  0  0  0  0  0  0  0  # atno 2461 bound_to 2456
   -3.6845   -5.1483    8.8633 H   0  0  0  0  0  0  0  0  0  0  0  0  # atno 2472 bound_to 2467
    2.1729   -7.4411    5.3842 H   0  0  0  0  0  0  0  0  0  0  0  0  # atno 2515 bound_to 2510
   -3.1632  -16.7342   14.5135 H   0  0  0  0  0  0  0  0  0  0  0  0  # atno 3721 bound_to 3712
   -3.9157  -23.0930   11.0586 H   0  0  0  0  0  0  0  0  0  0  0  0  # atno 3767 bound_to 3762
    1.5739  -20.1458    9.3541 H   0  0  0  0  0  0  0  0  0  0  0  0  # atno 3841 bound_to 3832
    3.4029   -9.1724    3.7867 LP  0  0  0  0  0  0  0  0  0  0  0  0  # atno 4297 bound_to 1298
    4.7679   -8.7163    4.5583 LP  0  0  0  0  0  0  0  0  0  0  0  0  # atno 4298 bound_to 1298
    2.1032   -8.2194    7.6323 LP  0  0  0  0  0  0  0  0  0  0  0  0  # atno 4299 bound_to 2456
    0.5395   -8.3019    7.1689 LP  0  0  0  0  0  0  0  0  0  0  0  0  # atno 4300 bound_to 2456
    2.8297   -8.5690    4.4034 LP  0  0  0  0  0  0  0  0  0  0  0  0  # atno 4301 bound_to 2510
    2.2942   -8.9895    5.8876 LP  0  0  0  0  0  0  0  0  0  0  0  0  # atno 4302 bound_to 2510
   -3.2668  -17.2172   12.9858 LP  0  0  0  0  0  0  0  0  0  0  0  0  # atno 4306 bound_to 3712
   -2.6089  -18.1891   14.1212 LP  0  0  0  0  0  0  0  0  0  0  0  0  # atno 4307 bound_to 3712
    2.5730  -19.8277    8.1389 LP  0  0  0  0  0  0  0  0  0  0  0  0  # atno 4314 bound_to 3832
    2.8382  -21.1062    9.1194 LP  0  0  0  0  0  0  0  0  0  0  0  0  # atno 4315 bound_to 3832
   -5.2099  -22.8540   10.0918 LP  0  0  0  0  0  0  0  0  0  0  0  0  # atno 4318 bound_to 3762
   -5.0015  -21.9282   11.4208 LP  0  0  0  0  0  0  0  0  0  0  0  0  # atno 4319 bound_to 3762
   -5.2779   -5.4102    9.1059 LP  0  0  0  0  0  0  0  0  0  0  0  0  # atno 4320 bound_to 2467
   -4.7543   -4.8351    7.6700 LP  0  0  0  0  0  0  0  0  0  0  0  0  # atno 4321 bound_to 2467

> <Gold.Score>
     Score     S(PLP)   S(hbond)     S(cho)   S(metal)  DE(clash)   DE(tors)     intcor
     53.59     -43.01       3.63       0.00       0.00       0.00       1.65       2.98

> <Gold.PLP.Fitness>
53.5878

> <Gold.PLP.PLP>
-43.0054

> <Gold.PLP.part.hbond>
-4.0000

> <Gold.PLP.part.metal>
0.0000

> <Gold.PLP.part.buried>
-3.8979

> <Gold.PLP.part.nonpolar>
-36.4746

> <Gold.PLP.part.repulsive>
0.3209

> <Gold.PLP.ligand.clash>
0.0000

> <Gold.PLP.ligand.torsion>
1.6503

> <Gold.PLP.Chemscore.Hbond>
3.6338

> <Gold.PLP.Chemscore.CHOScore>
0.0000

> <Gold.PLP.Chemscore.Metal>
0.0000

> <Gold.Chemscore.Hbonds>
donor molecule, donor type, donor heavy atom, donor atom, acceptor molecule, acceptor atom, score
      L1  H     3    34       P1  3712  1.00
      L1  H     5    35       P1  3712  0.63
      P1  H  2305  2313       L1     7  1.00
      P1  H  3832  3841       L1    19  1.00

> <Gold.PLP.Chemscore.Internal.Correction>
2.9817

