#       Name:                EN300-15782_i003
#       Creating user name   fsindt
#       Creation time:       Wed Mar  1 02:29:25 2023


#       File generated by GOLD software.
#

@<TRIPOS>MOLECULE
EN300-15782_i003|acide_3|mol2|9005|dock9
    35    35     1
SMALL
USER_CHARGES


@<TRIPOS>ATOM
      1 C1           1.0121 -15.3411  11.9971 C.3            1 <1>                0.0000
      2 C2           0.0469 -16.5053  11.7648 C.3            1 <1>                0.0000
      3 O3           0.1771 -16.9709  10.4200 O.3            1 <1>                0.0000
      4 C4           0.3779 -17.6432  12.7327 C.3            1 <1>                0.0000
      5 N5          -0.4474 -18.8109  12.4141 N.pl3          1 <1>                0.0000
      6 S6           0.2180 -20.1039  11.6220 S.o2           1 <1>                0.0000
      7 O7          -0.6033 -20.3457  10.4879 O.2            1 <1>                0.0000
      8 O8           1.6122 -19.8444  11.5309 O.2            1 <1>                0.0000
      9 C9           0.0409 -21.5069  12.6731 C.ar           1 <1>                0.0000
     10 C10          1.0940 -21.9082  13.4733 C.ar           1 <1>                0.0000
     11 C11          0.9549 -23.0091  14.2981 C.ar           1 <1>                0.0000
     12 C12         -0.2371 -23.7081  14.3226 C.ar           1 <1>                0.0000
     13 C13         -0.3884 -24.9084  15.2212 C.3            1 <1>                0.0000
     14 C14         -1.2909 -23.3059  13.5232 C.ar           1 <1>                0.0000
     15 C15         -2.5908 -24.0678  13.5503 C.3            1 <1>                0.0000
     16 C16         -1.1533 -22.2030  12.7016 C.ar           1 <1>                0.0000
     17 C17          0.0963 -17.1992  14.1450 C.2            1 <1>                0.0000
     18 O18         -0.6920 -17.8233  14.8345 O.co2          1 <1>                0.0000
     19 O19          0.6568 -16.2158  14.5981 O.co2          1 <1>               -1.0000
     20 H20          0.7763 -14.5306  11.3076 H              1 <1>                0.0000
     21 H21          0.9128 -14.9861  13.0229 H              1 <1>                0.0000
     22 H22          2.0348 -15.6774  11.8265 H              1 <1>                0.0000
     23 H23         -0.9758 -16.1690  11.9355 H              1 <1>                0.0000
     24 H24          1.4314 -17.9060  12.6377 H              1 <1>                0.0000
     25 H25          2.0255 -21.3620  13.4541 H              1 <1>                0.0000
     26 H26          1.7780 -23.3231  14.9228 H              1 <1>                0.0000
     27 H27         -0.7659 -24.5897  16.1927 H              1 <1>                0.0000
     28 H28         -1.0890 -25.6124  14.7723 H              1 <1>                0.0000
     29 H29          0.5805 -25.3914  15.3485 H              1 <1>                0.0000
     30 H30         -3.2450 -23.6433  14.3119 H              1 <1>                0.0000
     31 H31         -3.0741 -23.9968  12.5758 H              1 <1>                0.0000
     32 H32         -2.3939 -25.1143  13.7829 H              1 <1>                0.0000
     33 H33         -1.9766 -21.8888  12.0771 H              1 <1>                0.0000
     34 H34          1.0746 -16.9056  10.0664 H              1 <1>                0.0000
     35 H35         -1.3837 -18.8266  12.6671 H              1 <1>                0.0000
@<TRIPOS>BOND
    1    1    2 1     
    2    1   20 1     
    3    1   21 1     
    4    1   22 1     
    5    2    3 1     
    6    2    4 1     
    7    2   23 1     
    8    3   34 1     
    9    4    5 1     
   10    4   17 1     
   11    4   24 1     
   12    5    6 1     
   13    5   35 1     
   14    6    7 2     
   15    6    8 2     
   16    6    9 1     
   17    9   10 ar    
   18    9   16 ar    
   19   10   11 ar    
   20   10   25 1     
   21   11   12 ar    
   22   11   26 1     
   23   12   13 1     
   24   12   14 ar    
   25   13   27 1     
   26   13   28 1     
   27   13   29 1     
   28   14   15 1     
   29   14   16 ar    
   30   15   30 1     
   31   15   31 1     
   32   15   32 1     
   33   16   33 1     
   34   17   18 ar    
   35   17   19 ar    
@<TRIPOS>SUBSTRUCTURE
      1 ****           1
@<TRIPOS>SET
DONOR_HYDROGENS      STATIC     ATOMS    <user>   **** ""
2 34 35
ATOM$RED        STATIC     ATOMS    COLORGROUP SYSTEM
2 34 35
@<TRIPOS>COMMENT
> <Gold.Version>
2022.2.0

> <Gold.Id.Protein>
3pbl|protein|mol2

> <Gold.Protein.RotatedTorsions>
[ 1303 1298 1297 1294 ] final  -71.68 input  179.99 | X-H torsion
[ 2461 2456 2455 2452 ] final  -46.54 input   30.03 | X-H torsion
[ 2515 2510 2509 2506 ] final   90.92 input  -89.99 | X-H torsion
[ 3721 3712 3711 3710 ] final   -1.89 input -179.91 | X-H torsion
[ 3841 3832 3831 3830 ] final   18.57 input -179.91 | X-H torsion
[ 3767 3762 3761 3758 ] final -168.52 input  -89.99 | X-H torsion
[ 2472 2467 2466 2463 ] final   33.91 input  -89.97 | X-H torsion

> <Gold.Protein.ActiveResidues>
 VAL82   VAL86   LEU89   PHE106  VAL107  ASP110  VAL111  MET112  CYS114  THR115 
 CYS181  SER182  ILE183  PHE188  VAL189  ILE190  SER192  SER193  SER196  TRP342 
 PHE345  PHE346  HIS349  VAL350  TYR365  THR369  GLY372  TYR373 

> <Gold.Protein.RotatedAtoms>
    3.6104   -8.8216    3.7954 H   0  0  0  0  0  0  0  0  0  0  0  0  # atno 1303 bound_to 1298
    0.4572   -8.4015    7.2398 H   0  0  0  0  0  0  0  0  0  0  0  0  # atno 2461 bound_to 2456
   -4.2245   -4.8009    7.7347 H   0  0  0  0  0  0  0  0  0  0  0  0  # atno 2472 bound_to 2467
    2.0420   -7.7453    5.8500 H   0  0  0  0  0  0  0  0  0  0  0  0  # atno 2515 bound_to 2510
   -2.4911  -17.9453   14.2682 H   0  0  0  0  0  0  0  0  0  0  0  0  # atno 3721 bound_to 3712
   -4.2096  -22.3943   11.6228 H   0  0  0  0  0  0  0  0  0  0  0  0  # atno 3767 bound_to 3762
    1.9262  -20.6834    9.6173 H   0  0  0  0  0  0  0  0  0  0  0  0  # atno 3841 bound_to 3832
    4.8997   -9.0364    4.7741 LP  0  0  0  0  0  0  0  0  0  0  0  0  # atno 4297 bound_to 1298
    3.8522  -10.2636    4.5223 LP  0  0  0  0  0  0  0  0  0  0  0  0  # atno 4298 bound_to 1298
    1.2376   -9.2712    8.3809 LP  0  0  0  0  0  0  0  0  0  0  0  0  # atno 4299 bound_to 2456
    2.0427   -8.1354    7.5274 LP  0  0  0  0  0  0  0  0  0  0  0  0  # atno 4300 bound_to 2456
    2.7161   -8.0089    4.3865 LP  0  0  0  0  0  0  0  0  0  0  0  0  # atno 4301 bound_to 2510
    2.5388   -9.2452    5.4385 LP  0  0  0  0  0  0  0  0  0  0  0  0  # atno 4302 bound_to 2510
   -3.4523  -16.6694   14.4290 LP  0  0  0  0  0  0  0  0  0  0  0  0  # atno 4306 bound_to 3712
   -3.1993  -17.3387   12.9612 LP  0  0  0  0  0  0  0  0  0  0  0  0  # atno 4307 bound_to 3712
    1.8760  -19.6379    8.4005 LP  0  0  0  0  0  0  0  0  0  0  0  0  # atno 4314 bound_to 3832
    3.1282  -20.6749    8.5537 LP  0  0  0  0  0  0  0  0  0  0  0  0  # atno 4315 bound_to 3832
   -4.4151  -23.3225   10.2950 LP  0  0  0  0  0  0  0  0  0  0  0  0  # atno 4318 bound_to 3762
   -5.5025  -22.1582   10.6536 LP  0  0  0  0  0  0  0  0  0  0  0  0  # atno 4319 bound_to 3762
   -3.9919   -5.3255    9.2634 LP  0  0  0  0  0  0  0  0  0  0  0  0  # atno 4320 bound_to 2467
   -5.5004   -5.2671    8.6409 LP  0  0  0  0  0  0  0  0  0  0  0  0  # atno 4321 bound_to 2467

> <Gold.Score>
     Score     S(PLP)   S(hbond)     S(cho)   S(metal)  DE(clash)   DE(tors)     intcor
     53.91     -42.84       3.88       0.00       0.00       0.00       1.77       2.98

> <Gold.PLP.Fitness>
53.9074

> <Gold.PLP.PLP>
-42.8420

> <Gold.PLP.part.hbond>
-4.3009

> <Gold.PLP.part.metal>
0.0000

> <Gold.PLP.part.buried>
-4.6686

> <Gold.PLP.part.nonpolar>
-34.6057

> <Gold.PLP.part.repulsive>
0.2059

> <Gold.PLP.ligand.clash>
0.0000

> <Gold.PLP.ligand.torsion>
1.7745

> <Gold.PLP.Chemscore.Hbond>
3.8775

> <Gold.PLP.Chemscore.CHOScore>
0.0000

> <Gold.PLP.Chemscore.Metal>
0.0000

> <Gold.Chemscore.Hbonds>
donor molecule, donor type, donor heavy atom, donor atom, acceptor molecule, acceptor atom, score
      L1  H     3    34       P1  1227  1.00
      P1  H  2305  2313       L1    19  1.00
      P1  H  3712  3721       L1    18  1.00
      P1  H  3832  3841       L1     8  0.88

> <Gold.PLP.Chemscore.Internal.Correction>
2.9817

