#       Name:                EN300-15782_i003
#       Creating user name   fsindt
#       Creation time:       Wed Mar  1 02:29:40 2023


#       File generated by GOLD software.
#

@<TRIPOS>MOLECULE
EN300-15782_i003|acide_3|mol2|9005|dock19
    35    35     1
SMALL
USER_CHARGES


@<TRIPOS>ATOM
      1 C1           0.6708 -21.2589  12.5467 C.3            1 <1>                0.0000
      2 C2           1.3952 -19.9197  12.3959 C.3            1 <1>                0.0000
      3 O3           1.9957 -19.8462  11.1011 O.3            1 <1>                0.0000
      4 C4           0.3921 -18.7760  12.5585 C.3            1 <1>                0.0000
      5 N5           0.9237 -17.5665  11.9254 N.pl3          1 <1>                0.0000
      6 S6           0.1158 -16.1290  12.0775 S.o2           1 <1>                0.0000
      7 O7          -1.2513 -16.4568  12.2838 O.2            1 <1>                0.0000
      8 O8           0.8710 -15.3384  12.9852 O.2            1 <1>                0.0000
      9 C9           0.2023 -15.3145  10.5174 C.ar           1 <1>                0.0000
     10 C10          0.1095 -16.0473   9.3493 C.ar           1 <1>                0.0000
     11 C11          0.1774 -15.4082   8.1251 C.ar           1 <1>                0.0000
     12 C12          0.3377 -14.0366   8.0696 C.ar           1 <1>                0.0000
     13 C13          0.4123 -13.3401   6.7353 C.3            1 <1>                0.0000
     14 C14          0.4293 -13.3034   9.2381 C.ar           1 <1>                0.0000
     15 C15          0.6037 -11.8078   9.1776 C.3            1 <1>                0.0000
     16 C16          0.3575 -13.9419  10.4619 C.ar           1 <1>                0.0000
     17 C17          0.1608 -18.5154  14.0247 C.2            1 <1>                0.0000
     18 O18          1.1001 -18.2343  14.7495 O.co2          1 <1>                0.0000
     19 O19         -0.9655 -18.5855  14.4861 O.co2          1 <1>               -1.0000
     20 H20          1.3855 -22.0737  12.4308 H              1 <1>                0.0000
     21 H21          0.2128 -21.3149  13.5342 H              1 <1>                0.0000
     22 H22         -0.1020 -21.3420  11.7826 H              1 <1>                0.0000
     23 H23          2.1682 -19.8366  13.1600 H              1 <1>                0.0000
     24 H24         -0.5507 -19.0496  12.0850 H              1 <1>                0.0000
     25 H25         -0.0159 -17.1192   9.3926 H              1 <1>                0.0000
     26 H26          0.1055 -15.9809   7.2123 H              1 <1>                0.0000
     27 H27         -0.5904 -13.0526   6.4190 H              1 <1>                0.0000
     28 H28          1.0344 -12.4496   6.8245 H              1 <1>                0.0000
     29 H29          0.8468 -14.0143   5.9972 H              1 <1>                0.0000
     30 H30         -0.3750 -11.3279   9.1681 H              1 <1>                0.0000
     31 H31          1.1646 -11.4717  10.0496 H              1 <1>                0.0000
     32 H32          1.1474 -11.5418   8.2711 H              1 <1>                0.0000
     33 H33          0.4290 -13.3690  11.3747 H              1 <1>                0.0000
     34 H34          2.0755 -18.9468  10.7552 H              1 <1>                0.0000
     35 H35          1.7488 -17.6077  11.4171 H              1 <1>                0.0000
@<TRIPOS>BOND
    1    1    2 1     
    2    1   20 1     
    3    1   21 1     
    4    1   22 1     
    5    2    3 1     
    6    2    4 1     
    7    2   23 1     
    8    3   34 1     
    9    4    5 1     
   10    4   17 1     
   11    4   24 1     
   12    5    6 1     
   13    5   35 1     
   14    6    7 2     
   15    6    8 2     
   16    6    9 1     
   17    9   10 ar    
   18    9   16 ar    
   19   10   11 ar    
   20   10   25 1     
   21   11   12 ar    
   22   11   26 1     
   23   12   13 1     
   24   12   14 ar    
   25   13   27 1     
   26   13   28 1     
   27   13   29 1     
   28   14   15 1     
   29   14   16 ar    
   30   15   30 1     
   31   15   31 1     
   32   15   32 1     
   33   16   33 1     
   34   17   18 ar    
   35   17   19 ar    
@<TRIPOS>SUBSTRUCTURE
      1 ****           1
@<TRIPOS>SET
DONOR_HYDROGENS      STATIC     ATOMS    <user>   **** ""
2 34 35
ATOM$RED        STATIC     ATOMS    COLORGROUP SYSTEM
2 34 35
@<TRIPOS>COMMENT
> <Gold.Version>
2022.2.0

> <Gold.Id.Protein>
3pbl|protein|mol2

> <Gold.Protein.RotatedTorsions>
[ 1303 1298 1297 1294 ] final   88.62 input  179.99 | X-H torsion
[ 2461 2456 2455 2452 ] final   99.13 input   30.03 | X-H torsion
[ 2515 2510 2509 2506 ] final  -92.20 input  -89.99 | X-H torsion
[ 3721 3712 3711 3710 ] final    5.41 input -179.91 | X-H torsion
[ 3841 3832 3831 3830 ] final   22.26 input -179.91 | X-H torsion
[ 3767 3762 3761 3758 ] final  -15.50 input  -89.99 | X-H torsion
[ 2472 2467 2466 2463 ] final  162.96 input  -89.97 | X-H torsion

> <Gold.Protein.ActiveResidues>
 VAL82   VAL86   LEU89   PHE106  VAL107  ASP110  VAL111  MET112  CYS114  THR115 
 CYS181  SER182  ILE183  PHE188  VAL189  ILE190  SER192  SER193  SER196  TRP342 
 PHE345  PHE346  HIS349  VAL350  TYR365  THR369  GLY372  TYR373 

> <Gold.Protein.RotatedAtoms>
    4.3969  -10.1323    4.8506 H   0  0  0  0  0  0  0  0  0  0  0  0  # atno 1303 bound_to 1298
    2.1595   -8.3990    7.8315 H   0  0  0  0  0  0  0  0  0  0  0  0  # atno 2461 bound_to 2456
   -5.4677   -5.3139    8.7785 H   0  0  0  0  0  0  0  0  0  0  0  0  # atno 2472 bound_to 2467
    2.8165   -8.9588    4.6343 H   0  0  0  0  0  0  0  0  0  0  0  0  # atno 2515 bound_to 2510
   -2.4774  -17.9851   14.1662 H   0  0  0  0  0  0  0  0  0  0  0  0  # atno 3721 bound_to 3712
   -5.4387  -22.5251   10.2680 H   0  0  0  0  0  0  0  0  0  0  0  0  # atno 3767 bound_to 3762
    1.9699  -20.7180    9.6212 H   0  0  0  0  0  0  0  0  0  0  0  0  # atno 3841 bound_to 3832
    3.3405   -9.4108    3.8358 LP  0  0  0  0  0  0  0  0  0  0  0  0  # atno 4297 bound_to 1298
    4.6246   -8.5779    4.4050 LP  0  0  0  0  0  0  0  0  0  0  0  0  # atno 4298 bound_to 1298
    0.7367   -8.1374    7.0734 LP  0  0  0  0  0  0  0  0  0  0  0  0  # atno 4299 bound_to 2456
    0.8419   -9.2717    8.2433 LP  0  0  0  0  0  0  0  0  0  0  0  0  # atno 4300 bound_to 2456
    2.1331   -8.6095    6.0754 LP  0  0  0  0  0  0  0  0  0  0  0  0  # atno 4301 bound_to 2510
    2.3470   -7.4306    4.9658 LP  0  0  0  0  0  0  0  0  0  0  0  0  # atno 4302 bound_to 2510
   -3.4097  -16.7286   14.5267 LP  0  0  0  0  0  0  0  0  0  0  0  0  # atno 4306 bound_to 3712
   -3.2578  -17.2336   12.9812 LP  0  0  0  0  0  0  0  0  0  0  0  0  # atno 4307 bound_to 3712
    1.8266  -19.6443    8.4369 LP  0  0  0  0  0  0  0  0  0  0  0  0  # atno 4314 bound_to 3832
    3.1273  -20.6286    8.5128 LP  0  0  0  0  0  0  0  0  0  0  0  0  # atno 4315 bound_to 3832
   -4.6329  -22.0657   11.6121 LP  0  0  0  0  0  0  0  0  0  0  0  0  # atno 4318 bound_to 3762
   -4.0560  -23.2843   10.6907 LP  0  0  0  0  0  0  0  0  0  0  0  0  # atno 4319 bound_to 3762
   -4.3662   -4.7991    7.6885 LP  0  0  0  0  0  0  0  0  0  0  0  0  # atno 4320 bound_to 2467
   -3.8833   -5.2807    9.1722 LP  0  0  0  0  0  0  0  0  0  0  0  0  # atno 4321 bound_to 2467

> <Gold.Score>
     Score     S(PLP)   S(hbond)     S(cho)   S(metal)  DE(clash)   DE(tors)     intcor
     51.42     -41.54       3.78       0.00       0.00       0.00       2.22       2.98

> <Gold.PLP.Fitness>
51.4166

> <Gold.PLP.PLP>
-41.5387

> <Gold.PLP.part.hbond>
-4.8763

> <Gold.PLP.part.metal>
0.0000

> <Gold.PLP.part.buried>
-1.3616

> <Gold.PLP.part.nonpolar>
-36.2635

> <Gold.PLP.part.repulsive>
0.1773

> <Gold.PLP.ligand.clash>
0.0000

> <Gold.PLP.ligand.torsion>
2.2159

> <Gold.PLP.Chemscore.Hbond>
3.7760

> <Gold.PLP.Chemscore.CHOScore>
0.0000

> <Gold.PLP.Chemscore.Metal>
0.0000

> <Gold.Chemscore.Hbonds>
donor molecule, donor type, donor heavy atom, donor atom, acceptor molecule, acceptor atom, score
      L1  H     3    34       P1  1227  1.00
      L1  H     5    35       P1  1227  0.98
      P1  H  3712  3721       L1    19  1.00
      P1  H  3832  3841       L1     3  0.80

> <Gold.PLP.Chemscore.Internal.Correction>
2.9817

