#       Name:                EN300-15782_i003
#       Creating user name   fsindt
#       Creation time:       Wed Mar  1 02:29:17 2023


#       File generated by GOLD software.
#

@<TRIPOS>MOLECULE
EN300-15782_i003|acide_3|mol2|9005|dock4
    35    35     1
SMALL
USER_CHARGES


@<TRIPOS>ATOM
      1 C1           0.1327 -21.1962  12.2267 C.3            1 <1>                0.0000
      2 C2           0.9004 -19.8743  12.1627 C.3            1 <1>                0.0000
      3 O3           1.1905 -19.5573  10.7998 O.3            1 <1>                0.0000
      4 C4           0.0496 -18.7601  12.7755 C.3            1 <1>                0.0000
      5 N5           0.6278 -17.4588  12.4314 N.pl3          1 <1>                0.0000
      6 S6          -0.0246 -16.0713  13.0572 S.o2           1 <1>                0.0000
      7 O7          -1.3900 -16.3565  13.3279 O.2            1 <1>                0.0000
      8 O8           0.8846 -15.6117  14.0478 O.2            1 <1>                0.0000
      9 C9          -0.0134 -14.8645  11.7734 C.ar           1 <1>                0.0000
     10 C10          0.8618 -14.9935  10.7114 C.ar           1 <1>                0.0000
     11 C11          0.8706 -14.0465   9.7040 C.ar           1 <1>                0.0000
     12 C12          0.0041 -12.9713   9.7588 C.ar           1 <1>                0.0000
     13 C13          0.0141 -11.9388   8.6610 C.3            1 <1>                0.0000
     14 C14         -0.8722 -12.8429  10.8204 C.ar           1 <1>                0.0000
     15 C15         -1.8173 -11.6707  10.8798 C.3            1 <1>                0.0000
     16 C16         -0.8837 -13.7917  11.8255 C.ar           1 <1>                0.0000
     17 C17          0.0208 -18.9165  14.2741 C.2            1 <1>                0.0000
     18 O18          1.0601 -18.8827  14.9107 O.co2          1 <1>                0.0000
     19 O19         -1.0418 -19.0768  14.8500 O.co2          1 <1>               -1.0000
     20 H20          0.7388 -21.9899  11.7901 H              1 <1>                0.0000
     21 H21         -0.0886 -21.4378  13.2663 H              1 <1>                0.0000
     22 H22         -0.7993 -21.1023  11.6693 H              1 <1>                0.0000
     23 H23          1.8325 -19.9681  12.7202 H              1 <1>                0.0000
     24 H24         -0.9658 -18.8215  12.3843 H              1 <1>                0.0000
     25 H25          1.5389 -15.8339  10.6686 H              1 <1>                0.0000
     26 H26          1.5549 -14.1470   8.8745 H              1 <1>                0.0000
     27 H27         -0.6882 -12.2315   7.8806 H              1 <1>                0.0000
     28 H28         -0.2787 -10.9715   9.0692 H              1 <1>                0.0000
     29 H29          1.0167 -11.8666   8.2392 H              1 <1>                0.0000
     30 H30         -2.7497 -11.9298  10.3781 H              1 <1>                0.0000
     31 H31         -2.0221 -11.4214  11.9210 H              1 <1>                0.0000
     32 H32         -1.3639 -10.8128  10.3832 H              1 <1>                0.0000
     33 H33         -1.5684 -13.6914  12.6547 H              1 <1>                0.0000
     34 H34          1.6338 -18.7065  10.6797 H              1 <1>                0.0000
     35 H35          1.3928 -17.4098  11.8370 H              1 <1>                0.0000
@<TRIPOS>BOND
    1    1    2 1     
    2    1   20 1     
    3    1   21 1     
    4    1   22 1     
    5    2    3 1     
    6    2    4 1     
    7    2   23 1     
    8    3   34 1     
    9    4    5 1     
   10    4   17 1     
   11    4   24 1     
   12    5    6 1     
   13    5   35 1     
   14    6    7 2     
   15    6    8 2     
   16    6    9 1     
   17    9   10 ar    
   18    9   16 ar    
   19   10   11 ar    
   20   10   25 1     
   21   11   12 ar    
   22   11   26 1     
   23   12   13 1     
   24   12   14 ar    
   25   13   27 1     
   26   13   28 1     
   27   13   29 1     
   28   14   15 1     
   29   14   16 ar    
   30   15   30 1     
   31   15   31 1     
   32   15   32 1     
   33   16   33 1     
   34   17   18 ar    
   35   17   19 ar    
@<TRIPOS>SUBSTRUCTURE
      1 ****           1
@<TRIPOS>SET
DONOR_HYDROGENS      STATIC     ATOMS    <user>   **** ""
2 34 35
ATOM$RED        STATIC     ATOMS    COLORGROUP SYSTEM
2 34 35
@<TRIPOS>COMMENT
> <Gold.Version>
2022.2.0

> <Gold.Id.Protein>
3pbl|protein|mol2

> <Gold.Protein.RotatedTorsions>
[ 1303 1298 1297 1294 ] final   20.25 input  179.99 | X-H torsion
[ 2461 2456 2455 2452 ] final  154.56 input   30.03 | X-H torsion
[ 2515 2510 2509 2506 ] final   84.23 input  -89.99 | X-H torsion
[ 3721 3712 3711 3710 ] final    2.12 input -179.91 | X-H torsion
[ 3841 3832 3831 3830 ] final  -18.52 input -179.91 | X-H torsion
[ 3767 3762 3761 3758 ] final   36.80 input  -89.99 | X-H torsion
[ 2472 2467 2466 2463 ] final  -66.05 input  -89.97 | X-H torsion

> <Gold.Protein.ActiveResidues>
 VAL82   VAL86   LEU89   PHE106  VAL107  ASP110  VAL111  MET112  CYS114  THR115 
 CYS181  SER182  ILE183  PHE188  VAL189  ILE190  SER192  SER193  SER196  TRP342 
 PHE345  PHE346  HIS349  VAL350  TYR365  THR369  GLY372  TYR373 

> <Gold.Protein.RotatedAtoms>
    3.5333  -10.1001    4.2379 H   0  0  0  0  0  0  0  0  0  0  0  0  # atno 1303 bound_to 1298
    1.8143   -9.0266    8.3379 H   0  0  0  0  0  0  0  0  0  0  0  0  # atno 2461 bound_to 2456
   -3.7745   -5.2220    9.0405 H   0  0  0  0  0  0  0  0  0  0  0  0  # atno 2472 bound_to 2467
    2.0566   -7.6662    5.7749 H   0  0  0  0  0  0  0  0  0  0  0  0  # atno 2515 bound_to 2510
   -2.4828  -17.9685   14.2129 H   0  0  0  0  0  0  0  0  0  0  0  0  # atno 3721 bound_to 3712
   -4.8917  -23.1205   10.0757 H   0  0  0  0  0  0  0  0  0  0  0  0  # atno 3767 bound_to 3762
    1.6111  -20.2679    9.4404 H   0  0  0  0  0  0  0  0  0  0  0  0  # atno 3841 bound_to 3832
    3.9554   -8.5530    3.9303 LP  0  0  0  0  0  0  0  0  0  0  0  0  # atno 4297 bound_to 1298
    4.8737   -9.4679    4.9234 LP  0  0  0  0  0  0  0  0  0  0  0  0  # atno 4298 bound_to 1298
    1.5833   -7.9238    7.1556 LP  0  0  0  0  0  0  0  0  0  0  0  0  # atno 4299 bound_to 2456
    0.3404   -8.8579    7.6548 LP  0  0  0  0  0  0  0  0  0  0  0  0  # atno 4300 bound_to 2456
    2.7476   -8.1121    4.3645 LP  0  0  0  0  0  0  0  0  0  0  0  0  # atno 4301 bound_to 2510
    2.4927   -9.2212    5.5356 LP  0  0  0  0  0  0  0  0  0  0  0  0  # atno 4302 bound_to 2510
   -3.4296  -16.7005   14.4837 LP  0  0  0  0  0  0  0  0  0  0  0  0  # atno 4306 bound_to 3712
   -3.2316  -17.2809   12.9703 LP  0  0  0  0  0  0  0  0  0  0  0  0  # atno 4307 bound_to 3712
    2.4242  -19.7467    8.1585 LP  0  0  0  0  0  0  0  0  0  0  0  0  # atno 4314 bound_to 3832
    2.9440  -21.0461    9.0000 LP  0  0  0  0  0  0  0  0  0  0  0  0  # atno 4315 bound_to 3832
   -5.2943  -21.9365   11.1260 LP  0  0  0  0  0  0  0  0  0  0  0  0  # atno 4318 bound_to 3762
   -3.9415  -22.8183   11.3691 LP  0  0  0  0  0  0  0  0  0  0  0  0  # atno 4319 bound_to 3762
   -5.3981   -5.3628    8.9378 LP  0  0  0  0  0  0  0  0  0  0  0  0  # atno 4320 bound_to 2467
   -4.5442   -4.8087    7.6609 LP  0  0  0  0  0  0  0  0  0  0  0  0  # atno 4321 bound_to 2467

> <Gold.Score>
     Score     S(PLP)   S(hbond)     S(cho)   S(metal)  DE(clash)   DE(tors)     intcor
     56.29     -45.49       3.94       0.00       0.00       0.00       2.00       2.99

> <Gold.PLP.Fitness>
56.2900

> <Gold.PLP.PLP>
-45.4935

> <Gold.PLP.part.hbond>
-4.0453

> <Gold.PLP.part.metal>
0.0000

> <Gold.PLP.part.buried>
-3.4462

> <Gold.PLP.part.nonpolar>
-38.9745

> <Gold.PLP.part.repulsive>
0.1895

> <Gold.PLP.ligand.clash>
0.0000

> <Gold.PLP.ligand.torsion>
1.9997

> <Gold.PLP.Chemscore.Hbond>
3.9350

> <Gold.PLP.Chemscore.CHOScore>
0.0000

> <Gold.PLP.Chemscore.Metal>
0.0000

> <Gold.Chemscore.Hbonds>
donor molecule, donor type, donor heavy atom, donor atom, acceptor molecule, acceptor atom, score
      L1  H     3    34       P1  1227  0.96
      P1  H  2305  2313       L1     8  1.00
      P1  H  3712  3721       L1    19  1.00
      P1  H  3832  3841       L1     3  0.98

> <Gold.PLP.Chemscore.Internal.Correction>
2.9910

