#       Name:                EN300-15782_i003
#       Creating user name   fsindt
#       Creation time:       Wed Mar  1 02:29:29 2023


#       File generated by GOLD software.
#

@<TRIPOS>MOLECULE
EN300-15782_i003|acide_3|mol2|9005|dock12
    35    35     1
SMALL
USER_CHARGES


@<TRIPOS>ATOM
      1 C1          -0.7028 -18.5179  10.6775 C.3            1 <1>                0.0000
      2 C2           0.1088 -19.5157  11.5060 C.3            1 <1>                0.0000
      3 O3           1.4034 -19.6775  10.9228 O.3            1 <1>                0.0000
      4 C4           0.2556 -18.9912  12.9358 C.3            1 <1>                0.0000
      5 N5           1.1435 -17.8259  12.9397 N.pl3          1 <1>                0.0000
      6 S6           0.6138 -16.3834  13.5569 S.o2           1 <1>                0.0000
      7 O7          -0.7111 -16.6070  14.0190 O.2            1 <1>                0.0000
      8 O8           1.6562 -15.8970  14.3911 O.2            1 <1>                0.0000
      9 C9           0.4872 -15.2548  12.2097 C.ar           1 <1>                0.0000
     10 C10          1.4158 -15.2929  11.1868 C.ar           1 <1>                0.0000
     11 C11          1.3165 -14.4072  10.1297 C.ar           1 <1>                0.0000
     12 C12          0.2883 -13.4842  10.0958 C.ar           1 <1>                0.0000
     13 C13          0.1804 -12.5186   8.9439 C.3            1 <1>                0.0000
     14 C14         -0.6414 -13.4470  11.1184 C.ar           1 <1>                0.0000
     15 C15         -1.7626 -12.4409  11.0812 C.3            1 <1>                0.0000
     16 C16         -0.5443 -14.3350  12.1732 C.ar           1 <1>                0.0000
     17 C17          0.8402 -20.0710  13.8095 C.2            1 <1>                0.0000
     18 O18          1.1230 -21.1561  13.3307 O.co2          1 <1>                0.0000
     19 O19          1.0304 -19.8596  14.9951 O.co2          1 <1>               -1.0000
     20 H20         -0.8073 -18.8916   9.6589 H              1 <1>                0.0000
     21 H21         -1.6902 -18.3945  11.1224 H              1 <1>                0.0000
     22 H22         -0.1891 -17.5567  10.6609 H              1 <1>                0.0000
     23 H23         -0.4049 -20.4770  11.5226 H              1 <1>                0.0000
     24 H24         -0.7232 -18.7035  13.3195 H              1 <1>                0.0000
     25 H25          2.2192 -16.0142  11.2133 H              1 <1>                0.0000
     26 H26          2.0425 -14.4365   9.3307 H              1 <1>                0.0000
     27 H27         -0.4327 -12.9583   8.1573 H              1 <1>                0.0000
     28 H28         -0.2797 -11.5923   9.2881 H              1 <1>                0.0000
     29 H29          1.1756 -12.3064   8.5530 H              1 <1>                0.0000
     30 H30         -2.6198 -12.8711  10.5631 H              1 <1>                0.0000
     31 H31         -2.0484 -12.1773  12.0995 H              1 <1>                0.0000
     32 H32         -1.4309 -11.5465  10.5538 H              1 <1>                0.0000
     33 H33         -1.2706 -14.3059  12.9720 H              1 <1>                0.0000
     34 H34          1.8723 -18.8460  10.7693 H              1 <1>                0.0000
     35 H35          2.0416 -17.8993  12.5807 H              1 <1>                0.0000
@<TRIPOS>BOND
    1    1    2 1     
    2    1   20 1     
    3    1   21 1     
    4    1   22 1     
    5    2    3 1     
    6    2    4 1     
    7    2   23 1     
    8    3   34 1     
    9    4    5 1     
   10    4   17 1     
   11    4   24 1     
   12    5    6 1     
   13    5   35 1     
   14    6    7 2     
   15    6    8 2     
   16    6    9 1     
   17    9   10 ar    
   18    9   16 ar    
   19   10   11 ar    
   20   10   25 1     
   21   11   12 ar    
   22   11   26 1     
   23   12   13 1     
   24   12   14 ar    
   25   13   27 1     
   26   13   28 1     
   27   13   29 1     
   28   14   15 1     
   29   14   16 ar    
   30   15   30 1     
   31   15   31 1     
   32   15   32 1     
   33   16   33 1     
   34   17   18 ar    
   35   17   19 ar    
@<TRIPOS>SUBSTRUCTURE
      1 ****           1
@<TRIPOS>SET
DONOR_HYDROGENS      STATIC     ATOMS    <user>   **** ""
2 34 35
ATOM$RED        STATIC     ATOMS    COLORGROUP SYSTEM
2 34 35
@<TRIPOS>COMMENT
> <Gold.Version>
2022.2.0

> <Gold.Id.Protein>
3pbl|protein|mol2

> <Gold.Protein.RotatedTorsions>
[ 1303 1298 1297 1294 ] final  -31.86 input  179.99 | X-H torsion
[ 2461 2456 2455 2452 ] final  123.52 input   30.03 | X-H torsion
[ 2515 2510 2509 2506 ] final -118.98 input  -89.99 | X-H torsion
[ 3721 3712 3711 3710 ] final  -43.90 input -179.91 | X-H torsion
[ 3841 3832 3831 3830 ] final    3.80 input -179.91 | X-H torsion
[ 3767 3762 3761 3758 ] final -101.15 input  -89.99 | X-H torsion
[ 2472 2467 2466 2463 ] final   27.14 input  -89.97 | X-H torsion

> <Gold.Protein.ActiveResidues>
 VAL82   VAL86   LEU89   PHE106  VAL107  ASP110  VAL111  MET112  CYS114  THR115 
 CYS181  SER182  ILE183  PHE188  VAL189  ILE190  SER192  SER193  SER196  TRP342 
 PHE345  PHE346  HIS349  VAL350  TYR365  THR369  GLY372  TYR373 

> <Gold.Protein.RotatedAtoms>
    3.3415   -9.4032    3.8342 H   0  0  0  0  0  0  0  0  0  0  0  0  # atno 1303 bound_to 1298
    2.1030   -8.6877    8.1002 H   0  0  0  0  0  0  0  0  0  0  0  0  # atno 2461 bound_to 2456
   -4.1243   -4.8072    7.7827 H   0  0  0  0  0  0  0  0  0  0  0  0  # atno 2472 bound_to 2467
    2.7197   -9.1982    4.9862 H   0  0  0  0  0  0  0  0  0  0  0  0  # atno 2515 bound_to 2510
   -2.6872  -17.5372   14.6933 H   0  0  0  0  0  0  0  0  0  0  0  0  # atno 3721 bound_to 3712
   -5.0964  -21.9155   11.3426 H   0  0  0  0  0  0  0  0  0  0  0  0  # atno 3767 bound_to 3762
    1.7709  -20.5295    9.5757 H   0  0  0  0  0  0  0  0  0  0  0  0  # atno 3841 bound_to 3832
    4.6298   -8.5816    4.4100 LP  0  0  0  0  0  0  0  0  0  0  0  0  # atno 4297 bound_to 1298
    4.3911  -10.1366    4.8475 LP  0  0  0  0  0  0  0  0  0  0  0  0  # atno 4298 bound_to 1298
    1.0962   -7.9708    7.0325 LP  0  0  0  0  0  0  0  0  0  0  0  0  # atno 4299 bound_to 2456
    0.5388   -9.1496    8.0155 LP  0  0  0  0  0  0  0  0  0  0  0  0  # atno 4300 bound_to 2456
    2.0430   -8.1823    6.0705 LP  0  0  0  0  0  0  0  0  0  0  0  0  # atno 4301 bound_to 2510
    2.5339   -7.6183    4.6187 LP  0  0  0  0  0  0  0  0  0  0  0  0  # atno 4302 bound_to 2510
   -3.5674  -16.5725   13.7592 LP  0  0  0  0  0  0  0  0  0  0  0  0  # atno 4306 bound_to 3712
   -2.8579  -17.9068   13.1402 LP  0  0  0  0  0  0  0  0  0  0  0  0  # atno 4307 bound_to 3712
    2.0878  -19.6441    8.2750 LP  0  0  0  0  0  0  0  0  0  0  0  0  # atno 4314 bound_to 3832
    3.0960  -20.8465    8.7273 LP  0  0  0  0  0  0  0  0  0  0  0  0  # atno 4315 bound_to 3832
   -3.9073  -23.0195   11.1576 LP  0  0  0  0  0  0  0  0  0  0  0  0  # atno 4318 bound_to 3762
   -5.1238  -22.9398   10.0711 LP  0  0  0  0  0  0  0  0  0  0  0  0  # atno 4319 bound_to 3762
   -4.0827   -5.3559    9.3201 LP  0  0  0  0  0  0  0  0  0  0  0  0  # atno 4320 bound_to 2467
   -5.5098   -5.2304    8.5362 LP  0  0  0  0  0  0  0  0  0  0  0  0  # atno 4321 bound_to 2467

> <Gold.Score>
     Score     S(PLP)   S(hbond)     S(cho)   S(metal)  DE(clash)   DE(tors)     intcor
     53.56     -45.15       3.00       0.00       0.00       0.00       1.78       2.98

> <Gold.PLP.Fitness>
53.5632

> <Gold.PLP.PLP>
-45.1541

> <Gold.PLP.part.hbond>
-3.8429

> <Gold.PLP.part.metal>
0.0000

> <Gold.PLP.part.buried>
-5.3121

> <Gold.PLP.part.nonpolar>
-37.1917

> <Gold.PLP.part.repulsive>
0.1430

> <Gold.PLP.ligand.clash>
0.0000

> <Gold.PLP.ligand.torsion>
1.7848

> <Gold.PLP.Chemscore.Hbond>
2.9990

> <Gold.PLP.Chemscore.CHOScore>
0.0000

> <Gold.PLP.Chemscore.Metal>
0.0000

> <Gold.Chemscore.Hbonds>
donor molecule, donor type, donor heavy atom, donor atom, acceptor molecule, acceptor atom, score
      L1  H     3    34       P1  1227  1.00
      P1  H  2305  2313       L1     8  0.90
      P1  H  3712  3721       L1     7  0.10
      P1  H  3832  3841       L1     3  1.00

> <Gold.PLP.Chemscore.Internal.Correction>
2.9817

