#       Name:                EN300-15782_i003
#       Creating user name   fsindt
#       Creation time:       Wed Mar  1 02:29:13 2023


#       File generated by GOLD software.
#

@<TRIPOS>MOLECULE
EN300-15782_i003|acide_3|mol2|9005|dock1
    35    35     1
SMALL
USER_CHARGES


@<TRIPOS>ATOM
      1 C1           2.8040 -17.0897  14.7732 C.3            1 <1>                0.0000
      2 C2           2.4576 -16.8604  13.3007 C.3            1 <1>                0.0000
      3 O3           3.3001 -17.6732  12.4810 O.3            1 <1>                0.0000
      4 C4           0.9943 -17.2346  13.0567 C.3            1 <1>                0.0000
      5 N5           0.8397 -17.7347  11.6884 N.pl3          1 <1>                0.0000
      6 S6          -0.3586 -18.8215  11.3345 S.o2           1 <1>                0.0000
      7 O7          -1.5562 -18.2922  11.8866 O.2            1 <1>                0.0000
      8 O8          -0.2136 -19.1445   9.9584 O.2            1 <1>                0.0000
      9 C9          -0.0065 -20.2966  12.2316 C.ar           1 <1>                0.0000
     10 C10          1.1015 -20.3563  13.0557 C.ar           1 <1>                0.0000
     11 C11          1.3777 -21.5139  13.7596 C.ar           1 <1>                0.0000
     12 C12          0.5457 -22.6109  13.6394 C.ar           1 <1>                0.0000
     13 C13          0.8472 -23.8727  14.4063 C.3            1 <1>                0.0000
     14 C14         -0.5633 -22.5507  12.8162 C.ar           1 <1>                0.0000
     15 C15         -1.4707 -23.7467  12.6856 C.3            1 <1>                0.0000
     16 C16         -0.8416 -21.3922  12.1155 C.ar           1 <1>                0.0000
     17 C17          0.1261 -16.0176  13.2478 C.2            1 <1>                0.0000
     18 O18         -0.0325 -15.5509  14.3629 O.co2          1 <1>                0.0000
     19 O19         -0.4176 -15.4997  12.2872 O.co2          1 <1>               -1.0000
     20 H20          3.8466 -16.8233  14.9470 H              1 <1>                0.0000
     21 H21          2.1614 -16.4699  15.3984 H              1 <1>                0.0000
     22 H22          2.6508 -18.1396  15.0233 H              1 <1>                0.0000
     23 H23          2.6109 -15.8106  13.0506 H              1 <1>                0.0000
     24 H24          0.6947 -18.0090  13.7627 H              1 <1>                0.0000
     25 H25          1.7516 -19.4990  13.1496 H              1 <1>                0.0000
     26 H26          2.2439 -21.5608  14.4030 H              1 <1>                0.0000
     27 H27          0.3543 -23.8341  15.3777 H              1 <1>                0.0000
     28 H28          0.4814 -24.7339  13.8472 H              1 <1>                0.0000
     29 H29          1.9242 -23.9628  14.5487 H              1 <1>                0.0000
     30 H30         -2.2548 -23.6921  13.4408 H              1 <1>                0.0000
     31 H31         -1.9218 -23.7540  11.6934 H              1 <1>                0.0000
     32 H32         -0.8918 -24.6592  12.8283 H              1 <1>                0.0000
     33 H33         -1.7081 -21.3452  11.4724 H              1 <1>                0.0000
     34 H34          3.2428 -17.4720  11.5370 H              1 <1>                0.0000
     35 H35          1.4393 -17.4293  10.9898 H              1 <1>                0.0000
@<TRIPOS>BOND
    1    1    2 1     
    2    1   20 1     
    3    1   21 1     
    4    1   22 1     
    5    2    3 1     
    6    2    4 1     
    7    2   23 1     
    8    3   34 1     
    9    4    5 1     
   10    4   17 1     
   11    4   24 1     
   12    5    6 1     
   13    5   35 1     
   14    6    7 2     
   15    6    8 2     
   16    6    9 1     
   17    9   10 ar    
   18    9   16 ar    
   19   10   11 ar    
   20   10   25 1     
   21   11   12 ar    
   22   11   26 1     
   23   12   13 1     
   24   12   14 ar    
   25   13   27 1     
   26   13   28 1     
   27   13   29 1     
   28   14   15 1     
   29   14   16 ar    
   30   15   30 1     
   31   15   31 1     
   32   15   32 1     
   33   16   33 1     
   34   17   18 ar    
   35   17   19 ar    
@<TRIPOS>SUBSTRUCTURE
      1 ****           1
@<TRIPOS>SET
DONOR_HYDROGENS      STATIC     ATOMS    <user>   **** ""
2 34 35
ATOM$RED        STATIC     ATOMS    COLORGROUP SYSTEM
2 34 35
@<TRIPOS>COMMENT
> <Gold.Version>
2022.2.0

> <Gold.Id.Protein>
3pbl|protein|mol2

> <Gold.Protein.RotatedTorsions>
[ 1303 1298 1297 1294 ] final  141.87 input  179.99 | X-H torsion
[ 2461 2456 2455 2452 ] final -129.90 input   30.03 | X-H torsion
[ 2515 2510 2509 2506 ] final   61.79 input  -89.99 | X-H torsion
[ 3721 3712 3711 3710 ] final   94.62 input -179.91 | X-H torsion
[ 3841 3832 3831 3830 ] final  -47.50 input -179.91 | X-H torsion
[ 3767 3762 3761 3758 ] final -122.58 input  -89.99 | X-H torsion
[ 2472 2467 2466 2463 ] final  168.90 input  -89.97 | X-H torsion

> <Gold.Protein.ActiveResidues>
 VAL82   VAL86   LEU89   PHE106  VAL107  ASP110  VAL111  MET112  CYS114  THR115 
 CYS181  SER182  ILE183  PHE188  VAL189  ILE190  SER192  SER193  SER196  TRP342 
 PHE345  PHE346  HIS349  VAL350  TYR365  THR369  GLY372  TYR373 

> <Gold.Protein.RotatedAtoms>
    4.8798   -9.4425    4.9185 H   0  0  0  0  0  0  0  0  0  0  0  0  # atno 1303 bound_to 1298
    0.6928   -9.2309    8.1506 H   0  0  0  0  0  0  0  0  0  0  0  0  # atno 2461 bound_to 2456
   -5.4340   -5.3416    8.8658 H   0  0  0  0  0  0  0  0  0  0  0  0  # atno 2472 bound_to 2467
    2.1412   -7.4723    5.4753 H   0  0  0  0  0  0  0  0  0  0  0  0  # atno 2515 bound_to 2510
   -2.8178  -17.5598   13.0786 H   0  0  0  0  0  0  0  0  0  0  0  0  # atno 3721 bound_to 3712
   -4.8129  -21.9813   11.5383 H   0  0  0  0  0  0  0  0  0  0  0  0  # atno 3767 bound_to 3762
    1.5698  -19.9343    9.1672 H   0  0  0  0  0  0  0  0  0  0  0  0  # atno 3841 bound_to 3832
    3.5486  -10.1151    4.2537 LP  0  0  0  0  0  0  0  0  0  0  0  0  # atno 4297 bound_to 1298
    3.9334   -8.5637    3.9192 LP  0  0  0  0  0  0  0  0  0  0  0  0  # atno 4298 bound_to 1298
    2.1541   -8.5274    7.9578 LP  0  0  0  0  0  0  0  0  0  0  0  0  # atno 4299 bound_to 2456
    0.8907   -8.0500    7.0399 LP  0  0  0  0  0  0  0  0  0  0  0  0  # atno 4300 bound_to 2456
    2.8199   -8.4716    4.3769 LP  0  0  0  0  0  0  0  0  0  0  0  0  # atno 4301 bound_to 2510
    2.3358   -9.0556    5.8230 LP  0  0  0  0  0  0  0  0  0  0  0  0  # atno 4302 bound_to 2510
   -2.7359  -17.8857   14.6486 LP  0  0  0  0  0  0  0  0  0  0  0  0  # atno 4306 bound_to 3712
   -3.5386  -16.5676   14.1149 LP  0  0  0  0  0  0  0  0  0  0  0  0  # atno 4307 bound_to 3712
    2.8171  -20.0210    8.1608 LP  0  0  0  0  0  0  0  0  0  0  0  0  # atno 4314 bound_to 3832
    2.5990  -21.1572    9.3132 LP  0  0  0  0  0  0  0  0  0  0  0  0  # atno 4315 bound_to 3832
   -3.9685  -23.2082   10.8685 LP  0  0  0  0  0  0  0  0  0  0  0  0  # atno 4318 bound_to 3762
   -5.3461  -22.6853   10.1646 LP  0  0  0  0  0  0  0  0  0  0  0  0  # atno 4319 bound_to 3762
   -4.4619   -4.8028    7.6696 LP  0  0  0  0  0  0  0  0  0  0  0  0  # atno 4320 bound_to 2467
   -3.8212   -5.2492    9.1038 LP  0  0  0  0  0  0  0  0  0  0  0  0  # atno 4321 bound_to 2467

> <Gold.Score>
     Score     S(PLP)   S(hbond)     S(cho)   S(metal)  DE(clash)   DE(tors)     intcor
     57.85     -46.09       4.99       0.00       0.00       0.00       3.13       3.06

> <Gold.PLP.Fitness>
57.8538

> <Gold.PLP.PLP>
-46.0877

> <Gold.PLP.part.hbond>
-5.0000

> <Gold.PLP.part.metal>
0.0000

> <Gold.PLP.part.buried>
-5.6297

> <Gold.PLP.part.nonpolar>
-37.3260

> <Gold.PLP.part.repulsive>
0.3152

> <Gold.PLP.ligand.clash>
0.0000

> <Gold.PLP.ligand.torsion>
3.1334

> <Gold.PLP.Chemscore.Hbond>
4.9913

> <Gold.PLP.Chemscore.CHOScore>
0.0000

> <Gold.PLP.Chemscore.Metal>
0.0000

> <Gold.Chemscore.Hbonds>
donor molecule, donor type, donor heavy atom, donor atom, acceptor molecule, acceptor atom, score
      L1  H     3    34       P1  1227  1.00
      L1  H     5    35       P1  1227  1.00
      P1  H  2305  2313       L1    18  1.00
      P1  H  3712  3721       L1     7  1.00
      P1  H  3832  3841       L1     8  0.99

> <Gold.PLP.Chemscore.Internal.Correction>
3.0591

