#       Name:                EN300-15782_i003
#       Creating user name   fsindt
#       Creation time:       Wed Mar  1 02:29:42 2023


#       File generated by GOLD software.
#

@<TRIPOS>MOLECULE
EN300-15782_i003|acide_3|mol2|9005|dock20
    35    35     1
SMALL
USER_CHARGES


@<TRIPOS>ATOM
      1 C1           2.8698 -16.8905  14.8492 C.3            1 <1>                0.0000
      2 C2           2.3813 -16.8225  13.4009 C.3            1 <1>                0.0000
      3 O3           3.3626 -17.4033  12.5395 O.3            1 <1>                0.0000
      4 C4           1.0666 -17.5939  13.2693 C.3            1 <1>                0.0000
      5 N5           0.9064 -18.0537  11.8876 N.pl3          1 <1>                0.0000
      6 S6          -0.3783 -19.0152  11.4786 S.o2           1 <1>                0.0000
      7 O7          -1.5387 -18.3724  11.9878 O.2            1 <1>                0.0000
      8 O8          -0.2115 -19.3454  10.1066 O.2            1 <1>                0.0000
      9 C9          -0.2092 -20.5216  12.3769 C.ar           1 <1>                0.0000
     10 C10         -1.3103 -21.3314  12.5815 C.ar           1 <1>                0.0000
     11 C11         -1.1776 -22.5134  13.2864 C.ar           1 <1>                0.0000
     12 C12          0.0562 -22.8852  13.7861 C.ar           1 <1>                0.0000
     13 C13          0.2006 -24.1734  14.5548 C.3            1 <1>                0.0000
     14 C14          1.1579 -22.0758  13.5803 C.ar           1 <1>                0.0000
     15 C15          2.5032 -22.4815  14.1247 C.3            1 <1>                0.0000
     16 C16          1.0260 -20.8961  12.8722 C.ar           1 <1>                0.0000
     17 C17         -0.0838 -16.6917  13.6350 C.2            1 <1>                0.0000
     18 O18         -0.3010 -15.6855  12.9817 O.co2          1 <1>                0.0000
     19 O19         -0.7975 -16.9681  14.5841 O.co2          1 <1>               -1.0000
     20 H20          3.8065 -16.3410  14.9430 H              1 <1>                0.0000
     21 H21          2.1213 -16.4476  15.5062 H              1 <1>                0.0000
     22 H22          3.0295 -17.9315  15.1303 H              1 <1>                0.0000
     23 H23          2.2216 -15.7815  13.1198 H              1 <1>                0.0000
     24 H24          1.0812 -18.4536  13.9390 H              1 <1>                0.0000
     25 H25         -2.2745 -21.0408  12.1910 H              1 <1>                0.0000
     26 H26         -2.0382 -23.1459  13.4469 H              1 <1>                0.0000
     27 H27          0.4392 -24.9831  13.8654 H              1 <1>                0.0000
     28 H28          1.0016 -24.0716  15.2871 H              1 <1>                0.0000
     29 H29         -0.7346 -24.3970  15.0683 H              1 <1>                0.0000
     30 H30          3.0310 -23.0787  13.3811 H              1 <1>                0.0000
     31 H31          3.0862 -21.5897  14.3547 H              1 <1>                0.0000
     32 H32          2.3657 -23.0698  15.0319 H              1 <1>                0.0000
     33 H33          1.8867 -20.2638  12.7114 H              1 <1>                0.0000
     34 H34          3.1701 -17.2992  11.5976 H              1 <1>                0.0000
     35 H35          1.5529 -17.7950  11.2123 H              1 <1>                0.0000
@<TRIPOS>BOND
    1    1    2 1     
    2    1   20 1     
    3    1   21 1     
    4    1   22 1     
    5    2    3 1     
    6    2    4 1     
    7    2   23 1     
    8    3   34 1     
    9    4    5 1     
   10    4   17 1     
   11    4   24 1     
   12    5    6 1     
   13    5   35 1     
   14    6    7 2     
   15    6    8 2     
   16    6    9 1     
   17    9   10 ar    
   18    9   16 ar    
   19   10   11 ar    
   20   10   25 1     
   21   11   12 ar    
   22   11   26 1     
   23   12   13 1     
   24   12   14 ar    
   25   13   27 1     
   26   13   28 1     
   27   13   29 1     
   28   14   15 1     
   29   14   16 ar    
   30   15   30 1     
   31   15   31 1     
   32   15   32 1     
   33   16   33 1     
   34   17   18 ar    
   35   17   19 ar    
@<TRIPOS>SUBSTRUCTURE
      1 ****           1
@<TRIPOS>SET
DONOR_HYDROGENS      STATIC     ATOMS    <user>   **** ""
2 34 35
ATOM$RED        STATIC     ATOMS    COLORGROUP SYSTEM
2 34 35
@<TRIPOS>COMMENT
> <Gold.Version>
2022.2.0

> <Gold.Id.Protein>
3pbl|protein|mol2

> <Gold.Protein.RotatedTorsions>
[ 1303 1298 1297 1294 ] final  129.47 input  179.99 | X-H torsion
[ 2461 2456 2455 2452 ] final   74.04 input   30.03 | X-H torsion
[ 2515 2510 2509 2506 ] final  -36.16 input  -89.99 | X-H torsion
[ 3721 3712 3711 3710 ] final   92.68 input -179.91 | X-H torsion
[ 3841 3832 3831 3830 ] final  -47.86 input -179.91 | X-H torsion
[ 3767 3762 3761 3758 ] final   -5.50 input  -89.99 | X-H torsion
[ 2472 2467 2466 2463 ] final  -86.98 input  -89.97 | X-H torsion

> <Gold.Protein.ActiveResidues>
 VAL82   VAL86   LEU89   PHE106  VAL107  ASP110  VAL111  MET112  CYS114  THR115 
 CYS181  SER182  ILE183  PHE188  VAL189  ILE190  SER192  SER193  SER196  TRP342 
 PHE345  PHE346  HIS349  VAL350  TYR365  THR369  GLY372  TYR373 

> <Gold.Protein.RotatedAtoms>
    4.8144   -9.6331    4.9470 H   0  0  0  0  0  0  0  0  0  0  0  0  # atno 1303 bound_to 1298
    2.0475   -8.1404    7.5341 H   0  0  0  0  0  0  0  0  0  0  0  0  # atno 2461 bound_to 2456
   -4.0033   -5.3304    9.2713 H   0  0  0  0  0  0  0  0  0  0  0  0  # atno 2472 bound_to 2467
    2.7493   -8.1182    4.3640 H   0  0  0  0  0  0  0  0  0  0  0  0  # atno 2515 bound_to 2510
   -2.8035  -17.5832   13.0887 H   0  0  0  0  0  0  0  0  0  0  0  0  # atno 3721 bound_to 3712
   -5.3697  -22.6488   10.1846 H   0  0  0  0  0  0  0  0  0  0  0  0  # atno 3767 bound_to 3762
    1.5705  -19.9305    9.1634 H   0  0  0  0  0  0  0  0  0  0  0  0  # atno 3841 bound_to 3832
    3.4446   -9.9888    4.1325 LP  0  0  0  0  0  0  0  0  0  0  0  0  # atno 4297 bound_to 1298
    4.1029   -8.4993    4.0119 LP  0  0  0  0  0  0  0  0  0  0  0  0  # atno 4298 bound_to 1298
    0.4623   -8.3949    7.2348 LP  0  0  0  0  0  0  0  0  0  0  0  0  # atno 4299 bound_to 2456
    1.2282   -9.2727    8.3791 LP  0  0  0  0  0  0  0  0  0  0  0  0  # atno 4300 bound_to 2456
    2.4900   -9.2194    5.5411 LP  0  0  0  0  0  0  0  0  0  0  0  0  # atno 4301 bound_to 2510
    2.0573   -7.6616    5.7706 LP  0  0  0  0  0  0  0  0  0  0  0  0  # atno 4302 bound_to 2510
   -2.7471  -17.8629   14.6687 LP  0  0  0  0  0  0  0  0  0  0  0  0  # atno 4306 bound_to 3712
   -3.5439  -16.5632   14.0833 LP  0  0  0  0  0  0  0  0  0  0  0  0  # atno 4307 bound_to 3712
    2.8212  -20.0251    8.1620 LP  0  0  0  0  0  0  0  0  0  0  0  0  # atno 4314 bound_to 3832
    2.5940  -21.1574    9.3165 LP  0  0  0  0  0  0  0  0  0  0  0  0  # atno 4315 bound_to 3832
   -4.7727  -21.9981   11.5583 LP  0  0  0  0  0  0  0  0  0  0  0  0  # atno 4318 bound_to 3762
   -3.9851  -23.2282   10.8280 LP  0  0  0  0  0  0  0  0  0  0  0  0  # atno 4319 bound_to 3762
   -5.5024   -5.2624    8.6273 LP  0  0  0  0  0  0  0  0  0  0  0  0  # atno 4320 bound_to 2467
   -4.2111   -4.8008    7.7407 LP  0  0  0  0  0  0  0  0  0  0  0  0  # atno 4321 bound_to 2467

> <Gold.Score>
     Score     S(PLP)   S(hbond)     S(cho)   S(metal)  DE(clash)   DE(tors)     intcor
     54.08     -43.83       3.99       0.00       0.00       0.00       2.35       2.98

> <Gold.PLP.Fitness>
54.0817

> <Gold.PLP.PLP>
-43.8277

> <Gold.PLP.part.hbond>
-5.0000

> <Gold.PLP.part.metal>
0.0000

> <Gold.PLP.part.buried>
-5.9543

> <Gold.PLP.part.nonpolar>
-34.2762

> <Gold.PLP.part.repulsive>
0.2333

> <Gold.PLP.ligand.clash>
0.0000

> <Gold.PLP.ligand.torsion>
2.3507

> <Gold.PLP.Chemscore.Hbond>
3.9913

> <Gold.PLP.Chemscore.CHOScore>
0.0000

> <Gold.PLP.Chemscore.Metal>
0.0000

> <Gold.Chemscore.Hbonds>
donor molecule, donor type, donor heavy atom, donor atom, acceptor molecule, acceptor atom, score
      L1  H     3    34       P1  1227  0.99
      L1  H     5    35       P1  1227  1.00
      P1  H  3712  3721       L1     7  1.00
      P1  H  3832  3841       L1     8  1.00

> <Gold.PLP.Chemscore.Internal.Correction>
2.9817

