#       Name:                EN300-15782_i003
#       Creating user name   fsindt
#       Creation time:       Wed Mar  1 02:29:16 2023


#       File generated by GOLD software.
#

@<TRIPOS>MOLECULE
EN300-15782_i003|acide_3|mol2|9005|dock3
    35    35     1
SMALL
USER_CHARGES


@<TRIPOS>ATOM
      1 C1          -0.2031 -14.4442  12.3248 C.3            1 <1>                0.0000
      2 C2          -0.0626 -15.8173  11.6647 C.3            1 <1>                0.0000
      3 O3           0.4347 -15.6577  10.3344 O.3            1 <1>                0.0000
      4 C4           0.9121 -16.6750  12.4740 C.3            1 <1>                0.0000
      5 N5           1.1056 -17.9616  11.8007 N.pl3          1 <1>                0.0000
      6 S6          -0.2019 -18.9103  11.4362 S.o2           1 <1>                0.0000
      7 O7          -1.3346 -18.2681  12.0052 O.2            1 <1>                0.0000
      8 O8          -0.0982 -19.2224  10.0538 O.2            1 <1>                0.0000
      9 C9          -0.0023 -20.4298  12.3056 C.ar           1 <1>                0.0000
     10 C10          0.9802 -20.5500  13.2703 C.ar           1 <1>                0.0000
     11 C11          1.1368 -21.7424  13.9525 C.ar           1 <1>                0.0000
     12 C12          0.3107 -22.8138  13.6700 C.ar           1 <1>                0.0000
     13 C13          0.4818 -24.1136  14.4133 C.3            1 <1>                0.0000
     14 C14         -0.6730 -22.6931  12.7060 C.ar           1 <1>                0.0000
     15 C15         -1.5739 -23.8612  12.3984 C.3            1 <1>                0.0000
     16 C16         -0.8320 -21.4999  12.0268 C.ar           1 <1>                0.0000
     17 C17          0.3500 -16.9090  13.8526 C.2            1 <1>                0.0000
     18 O18          0.0997 -18.0428  14.2245 O.co2          1 <1>                0.0000
     19 O19          0.1456 -15.9645  14.5960 O.co2          1 <1>               -1.0000
     20 H20         -0.8975 -13.8331  11.7481 H              1 <1>                0.0000
     21 H21         -0.5824 -14.5660  13.3394 H              1 <1>                0.0000
     22 H22          0.7705 -13.9553  12.3571 H              1 <1>                0.0000
     23 H23         -1.0364 -16.3062  11.6323 H              1 <1>                0.0000
     24 H24          1.8691 -16.1595  12.5546 H              1 <1>                0.0000
     25 H25          1.6257 -19.7128  13.4911 H              1 <1>                0.0000
     26 H26          1.9049 -21.8366  14.7058 H              1 <1>                0.0000
     27 H27         -0.1398 -24.1047  15.3086 H              1 <1>                0.0000
     28 H28          0.1819 -24.9416  13.7710 H              1 <1>                0.0000
     29 H29          1.5271 -24.2346  14.6978 H              1 <1>                0.0000
     30 H30         -2.4537 -23.8204  13.0407 H              1 <1>                0.0000
     31 H31         -1.8839 -23.8160  11.3544 H              1 <1>                0.0000
     32 H32         -1.0361 -24.7921  12.5779 H              1 <1>                0.0000
     33 H33         -1.6005 -21.4056  11.2738 H              1 <1>                0.0000
     34 H34          1.1242 -16.2913  10.0938 H              1 <1>                0.0000
     35 H35          1.9995 -18.2579  11.5683 H              1 <1>                0.0000
@<TRIPOS>BOND
    1    1    2 1     
    2    1   20 1     
    3    1   21 1     
    4    1   22 1     
    5    2    3 1     
    6    2    4 1     
    7    2   23 1     
    8    3   34 1     
    9    4    5 1     
   10    4   17 1     
   11    4   24 1     
   12    5    6 1     
   13    5   35 1     
   14    6    7 2     
   15    6    8 2     
   16    6    9 1     
   17    9   10 ar    
   18    9   16 ar    
   19   10   11 ar    
   20   10   25 1     
   21   11   12 ar    
   22   11   26 1     
   23   12   13 1     
   24   12   14 ar    
   25   13   27 1     
   26   13   28 1     
   27   13   29 1     
   28   14   15 1     
   29   14   16 ar    
   30   15   30 1     
   31   15   31 1     
   32   15   32 1     
   33   16   33 1     
   34   17   18 ar    
   35   17   19 ar    
@<TRIPOS>SUBSTRUCTURE
      1 ****           1
@<TRIPOS>SET
DONOR_HYDROGENS      STATIC     ATOMS    <user>   **** ""
2 34 35
ATOM$RED        STATIC     ATOMS    COLORGROUP SYSTEM
2 34 35
@<TRIPOS>COMMENT
> <Gold.Version>
2022.2.0

> <Gold.Id.Protein>
3pbl|protein|mol2

> <Gold.Protein.RotatedTorsions>
[ 1303 1298 1297 1294 ] final -124.41 input  179.99 | X-H torsion
[ 2461 2456 2455 2452 ] final   35.92 input   30.03 | X-H torsion
[ 2515 2510 2509 2506 ] final  -50.19 input  -89.99 | X-H torsion
[ 3721 3712 3711 3710 ] final   86.36 input -179.91 | X-H torsion
[ 3841 3832 3831 3830 ] final  -36.54 input -179.91 | X-H torsion
[ 3767 3762 3761 3758 ] final   44.00 input  -89.99 | X-H torsion
[ 2472 2467 2466 2463 ] final   72.78 input  -89.97 | X-H torsion

> <Gold.Protein.ActiveResidues>
 VAL82   VAL86   LEU89   PHE106  VAL107  ASP110  VAL111  MET112  CYS114  THR115 
 CYS181  SER182  ILE183  PHE188  VAL189  ILE190  SER192  SER193  SER196  TRP342 
 PHE345  PHE346  HIS349  VAL350  TYR365  THR369  GLY372  TYR373 

> <Gold.Protein.RotatedAtoms>
    4.2929   -8.4756    4.1354 H   0  0  0  0  0  0  0  0  0  0  0  0  # atno 1303 bound_to 1298
    1.6035   -7.9261    7.1650 H   0  0  0  0  0  0  0  0  0  0  0  0  # atno 2461 bound_to 2456
   -4.8482   -4.8530    7.6888 H   0  0  0  0  0  0  0  0  0  0  0  0  # atno 2472 bound_to 2467
    2.8004   -8.3426    4.3576 H   0  0  0  0  0  0  0  0  0  0  0  0  # atno 2515 bound_to 2510
   -2.7576  -17.6573   13.1277 H   0  0  0  0  0  0  0  0  0  0  0  0  # atno 3721 bound_to 3712
   -4.7923  -23.1804   10.0995 H   0  0  0  0  0  0  0  0  0  0  0  0  # atno 3767 bound_to 3762
    1.5620  -20.0549    9.2800 H   0  0  0  0  0  0  0  0  0  0  0  0  # atno 3841 bound_to 3832
    4.7034   -9.8321    4.9464 LP  0  0  0  0  0  0  0  0  0  0  0  0  # atno 4297 bound_to 1298
    3.3658   -9.8139    4.0098 LP  0  0  0  0  0  0  0  0  0  0  0  0  # atno 4298 bound_to 1298
    0.3375   -8.8427    7.6386 LP  0  0  0  0  0  0  0  0  0  0  0  0  # atno 4299 bound_to 2456
    1.7969   -9.0392    8.3444 LP  0  0  0  0  0  0  0  0  0  0  0  0  # atno 4300 bound_to 2456
    2.3914   -9.1291    5.7287 LP  0  0  0  0  0  0  0  0  0  0  0  0  # atno 4301 bound_to 2510
    2.1048   -7.5275    5.5894 LP  0  0  0  0  0  0  0  0  0  0  0  0  # atno 4302 bound_to 2510
   -2.7865  -17.7850   14.7279 LP  0  0  0  0  0  0  0  0  0  0  0  0  # atno 4306 bound_to 3712
   -3.5575  -16.5557   13.9789 LP  0  0  0  0  0  0  0  0  0  0  0  0  # atno 4307 bound_to 3712
    2.6802  -19.9018    8.1389 LP  0  0  0  0  0  0  0  0  0  0  0  0  # atno 4314 bound_to 3832
    2.7448  -21.1371    9.2049 LP  0  0  0  0  0  0  0  0  0  0  0  0  # atno 4315 bound_to 3832
   -5.3584  -21.9638   11.0302 LP  0  0  0  0  0  0  0  0  0  0  0  0  # atno 4318 bound_to 3762
   -3.9767  -22.7310   11.4410 LP  0  0  0  0  0  0  0  0  0  0  0  0  # atno 4319 bound_to 3762
   -3.6582   -5.1132    8.7763 LP  0  0  0  0  0  0  0  0  0  0  0  0  # atno 4320 bound_to 2467
   -5.2106   -5.4273    9.1738 LP  0  0  0  0  0  0  0  0  0  0  0  0  # atno 4321 bound_to 2467

> <Gold.Score>
     Score     S(PLP)   S(hbond)     S(cho)   S(metal)  DE(clash)   DE(tors)     intcor
     58.54     -46.62       4.19       0.00       0.00       0.00       1.82       2.99

> <Gold.PLP.Fitness>
58.5371

> <Gold.PLP.PLP>
-46.6238

> <Gold.PLP.part.hbond>
-5.0000

> <Gold.PLP.part.metal>
0.0000

> <Gold.PLP.part.buried>
-6.9338

> <Gold.PLP.part.nonpolar>
-36.0441

> <Gold.PLP.part.repulsive>
0.2224

> <Gold.PLP.ligand.clash>
0.0000

> <Gold.PLP.ligand.torsion>
1.8196

> <Gold.PLP.Chemscore.Hbond>
4.1872

> <Gold.PLP.Chemscore.CHOScore>
0.0000

> <Gold.PLP.Chemscore.Metal>
0.0000

> <Gold.Chemscore.Hbonds>
donor molecule, donor type, donor heavy atom, donor atom, acceptor molecule, acceptor atom, score
      L1  H     3    34       P1  1227  1.00
      L1  H     5    35       P1  1227  0.19
      P1  H  2305  2313       L1    19  1.00
      P1  H  3712  3721       L1     7  1.00
      P1  H  3832  3841       L1     8  1.00

> <Gold.PLP.Chemscore.Internal.Correction>
2.9910

