#       Name:                EN300-15782_i003
#       Creating user name   fsindt
#       Creation time:       Wed Mar  1 02:29:28 2023


#       File generated by GOLD software.
#

@<TRIPOS>MOLECULE
EN300-15782_i003|acide_3|mol2|9005|dock11
    35    35     1
SMALL
USER_CHARGES


@<TRIPOS>ATOM
      1 C1           2.3888 -16.8238  14.4189 C.3            1 <1>                0.0000
      2 C2           1.9103 -16.1792  13.1165 C.3            1 <1>                0.0000
      3 O3           2.9070 -16.3493  12.1065 O.3            1 <1>                0.0000
      4 C4           0.6087 -16.8453  12.6658 C.3            1 <1>                0.0000
      5 N5           0.8534 -18.2651  12.4000 N.pl3          1 <1>                0.0000
      6 S6          -0.3647 -19.2187  11.8092 S.o2           1 <1>                0.0000
      7 O7          -1.5814 -18.6453  12.2674 O.2            1 <1>                0.0000
      8 O8          -0.0757 -19.4327  10.4344 O.2            1 <1>                0.0000
      9 C9          -0.2267 -20.7888  12.5969 C.ar           1 <1>                0.0000
     10 C10          0.9570 -21.1520  13.2110 C.ar           1 <1>                0.0000
     11 C11          1.0653 -22.3840  13.8291 C.ar           1 <1>                0.0000
     12 C12         -0.0101 -23.2521  13.8331 C.ar           1 <1>                0.0000
     13 C13          0.1082 -24.5951  14.5064 C.3            1 <1>                0.0000
     14 C14         -1.1946 -22.8882  13.2199 C.ar           1 <1>                0.0000
     15 C15         -2.3673 -23.8345  13.2247 C.3            1 <1>                0.0000
     16 C16         -1.3041 -21.6550  12.6054 C.ar           1 <1>                0.0000
     17 C17          0.1114 -16.1775  11.4097 C.2            1 <1>                0.0000
     18 O18         -0.0451 -14.9687  11.3830 O.co2          1 <1>                0.0000
     19 O19         -0.1342 -16.8460  10.4202 O.co2          1 <1>               -1.0000
     20 H20          3.3161 -16.3492  14.7399 H              1 <1>                0.0000
     21 H21          1.6286 -16.6940  15.1892 H              1 <1>                0.0000
     22 H22          2.5626 -17.8873  14.2555 H              1 <1>                0.0000
     23 H23          1.7365 -15.1155  13.2799 H              1 <1>                0.0000
     24 H24         -0.1407 -16.7465  13.4510 H              1 <1>                0.0000
     25 H25          1.7974 -20.4736  13.2080 H              1 <1>                0.0000
     26 H26          1.9905 -22.6682  14.3085 H              1 <1>                0.0000
     27 H27         -0.1932 -24.5062  15.5500 H              1 <1>                0.0000
     28 H28         -0.5383 -25.3129  14.0014 H              1 <1>                0.0000
     29 H29          1.1417 -24.9378  14.4545 H              1 <1>                0.0000
     30 H30         -2.9797 -23.6499  14.1073 H              1 <1>                0.0000
     31 H31         -2.9659 -23.6760  12.3276 H              1 <1>                0.0000
     32 H32         -2.0048 -24.8623  13.2426 H              1 <1>                0.0000
     33 H33         -2.2295 -21.3707  12.1264 H              1 <1>                0.0000
     34 H34          2.5702 -16.7226  11.2806 H              1 <1>                0.0000
     35 H35          1.7288 -18.6466  12.5701 H              1 <1>                0.0000
@<TRIPOS>BOND
    1    1    2 1     
    2    1   20 1     
    3    1   21 1     
    4    1   22 1     
    5    2    3 1     
    6    2    4 1     
    7    2   23 1     
    8    3   34 1     
    9    4    5 1     
   10    4   17 1     
   11    4   24 1     
   12    5    6 1     
   13    5   35 1     
   14    6    7 2     
   15    6    8 2     
   16    6    9 1     
   17    9   10 ar    
   18    9   16 ar    
   19   10   11 ar    
   20   10   25 1     
   21   11   12 ar    
   22   11   26 1     
   23   12   13 1     
   24   12   14 ar    
   25   13   27 1     
   26   13   28 1     
   27   13   29 1     
   28   14   15 1     
   29   14   16 ar    
   30   15   30 1     
   31   15   31 1     
   32   15   32 1     
   33   16   33 1     
   34   17   18 ar    
   35   17   19 ar    
@<TRIPOS>SUBSTRUCTURE
      1 ****           1
@<TRIPOS>SET
DONOR_HYDROGENS      STATIC     ATOMS    <user>   **** ""
2 34 35
ATOM$RED        STATIC     ATOMS    COLORGROUP SYSTEM
2 34 35
@<TRIPOS>COMMENT
> <Gold.Version>
2022.2.0

> <Gold.Id.Protein>
3pbl|protein|mol2

> <Gold.Protein.RotatedTorsions>
[ 1303 1298 1297 1294 ] final   98.74 input  179.99 | X-H torsion
[ 2461 2456 2455 2452 ] final    4.52 input   30.03 | X-H torsion
[ 2515 2510 2509 2506 ] final   28.32 input  -89.99 | X-H torsion
[ 3721 3712 3711 3710 ] final   85.51 input -179.91 | X-H torsion
[ 3841 3832 3831 3830 ] final  -36.46 input -179.91 | X-H torsion
[ 3767 3762 3761 3758 ] final -111.17 input  -89.99 | X-H torsion
[ 2472 2467 2466 2463 ] final   69.64 input  -89.97 | X-H torsion

> <Gold.Protein.ActiveResidues>
 VAL82   VAL86   LEU89   PHE106  VAL107  ASP110  VAL111  MET112  CYS114  THR115 
 CYS181  SER182  ILE183  PHE188  VAL189  ILE190  SER192  SER193  SER196  TRP342 
 PHE345  PHE346  HIS349  VAL350  TYR365  THR369  GLY372  TYR373 

> <Gold.Protein.RotatedAtoms>
    4.5228  -10.0360    4.9007 H   0  0  0  0  0  0  0  0  0  0  0  0  # atno 1303 bound_to 1298
    1.1120   -7.9661    7.0333 H   0  0  0  0  0  0  0  0  0  0  0  0  # atno 2461 bound_to 2456
   -4.7986   -4.8435    7.6775 H   0  0  0  0  0  0  0  0  0  0  0  0  # atno 2472 bound_to 2467
    2.3436   -7.4291    4.9735 H   0  0  0  0  0  0  0  0  0  0  0  0  # atno 2515 bound_to 2510
   -2.7515  -17.6670   13.1337 H   0  0  0  0  0  0  0  0  0  0  0  0  # atno 3721 bound_to 3712
   -4.9683  -21.9343   11.4443 H   0  0  0  0  0  0  0  0  0  0  0  0  # atno 3767 bound_to 3762
    1.5620  -20.0558    9.2809 H   0  0  0  0  0  0  0  0  0  0  0  0  # atno 3841 bound_to 3832
    3.3296   -9.5679    3.8892 LP  0  0  0  0  0  0  0  0  0  0  0  0  # atno 4297 bound_to 1298
    4.5096   -8.5171    4.3015 LP  0  0  0  0  0  0  0  0  0  0  0  0  # atno 4298 bound_to 1298
    0.5287   -9.1423    8.0047 LP  0  0  0  0  0  0  0  0  0  0  0  0  # atno 4299 bound_to 2456
    2.0970   -8.6996    8.1099 LP  0  0  0  0  0  0  0  0  0  0  0  0  # atno 4300 bound_to 2456
    2.8176   -8.9529    4.6283 LP  0  0  0  0  0  0  0  0  0  0  0  0  # atno 4301 bound_to 2510
    2.1356   -8.6175    6.0736 LP  0  0  0  0  0  0  0  0  0  0  0  0  # atno 4302 bound_to 2510
   -2.7921  -17.7741   14.7352 LP  0  0  0  0  0  0  0  0  0  0  0  0  # atno 4306 bound_to 3712
   -3.5589  -16.5554   13.9647 LP  0  0  0  0  0  0  0  0  0  0  0  0  # atno 4307 bound_to 3712
    2.6791  -19.9010    8.1388 LP  0  0  0  0  0  0  0  0  0  0  0  0  # atno 4314 bound_to 3832
    2.7459  -21.1369    9.2040 LP  0  0  0  0  0  0  0  0  0  0  0  0  # atno 4315 bound_to 3832
   -3.9223  -23.1163   11.0253 LP  0  0  0  0  0  0  0  0  0  0  0  0  # atno 4318 bound_to 3762
   -5.2369  -22.8242   10.1017 LP  0  0  0  0  0  0  0  0  0  0  0  0  # atno 4319 bound_to 3762
   -3.6710   -5.1314    8.8230 LP  0  0  0  0  0  0  0  0  0  0  0  0  # atno 4320 bound_to 2467
   -5.2473   -5.4186    9.1385 LP  0  0  0  0  0  0  0  0  0  0  0  0  # atno 4321 bound_to 2467

> <Gold.Score>
     Score     S(PLP)   S(hbond)     S(cho)   S(metal)  DE(clash)   DE(tors)     intcor
     51.01     -42.86       2.99       0.00       0.00       0.00       1.90       2.98

> <Gold.PLP.Fitness>
51.0129

> <Gold.PLP.PLP>
-42.8648

> <Gold.PLP.part.hbond>
-3.0000

> <Gold.PLP.part.metal>
0.0000

> <Gold.PLP.part.buried>
-3.9055

> <Gold.PLP.part.nonpolar>
-38.3463

> <Gold.PLP.part.repulsive>
1.2537

> <Gold.PLP.ligand.clash>
0.0000

> <Gold.PLP.ligand.torsion>
1.9048

> <Gold.PLP.Chemscore.Hbond>
2.9920

> <Gold.PLP.Chemscore.CHOScore>
0.0000

> <Gold.PLP.Chemscore.Metal>
0.0000

> <Gold.Chemscore.Hbonds>
donor molecule, donor type, donor heavy atom, donor atom, acceptor molecule, acceptor atom, score
      L1  H     3    34       P1  1227  1.00
      P1  H  3712  3721       L1     7  0.99
      P1  H  3832  3841       L1     8  1.00

> <Gold.PLP.Chemscore.Internal.Correction>
2.9817

