#       Name:                EN300-15782_i003
#       Creating user name   fsindt
#       Creation time:       Wed Mar  1 02:29:14 2023


#       File generated by GOLD software.
#

@<TRIPOS>MOLECULE
EN300-15782_i003|acide_3|mol2|9005|dock2
    35    35     1
SMALL
USER_CHARGES


@<TRIPOS>ATOM
      1 C1          -0.7995 -18.7180   9.4038 C.3            1 <1>                0.0000
      2 C2          -0.3607 -19.3306  10.7354 C.3            1 <1>                0.0000
      3 O3           1.0052 -19.7408  10.6439 O.3            1 <1>                0.0000
      4 C4          -0.5076 -18.2909  11.8482 C.3            1 <1>                0.0000
      5 N5           0.5142 -17.2538  11.6854 N.pl3          1 <1>                0.0000
      6 S6           0.3984 -15.8368  12.5346 S.o2           1 <1>                0.0000
      7 O7          -0.8023 -15.9188  13.2901 O.2            1 <1>                0.0000
      8 O8           1.6731 -15.6161  13.1226 O.2            1 <1>                0.0000
      9 C9           0.1610 -14.5437  11.3615 C.ar           1 <1>                0.0000
     10 C10          0.8837 -14.5383  10.1834 C.ar           1 <1>                0.0000
     11 C11          0.6974 -13.5235   9.2629 C.ar           1 <1>                0.0000
     12 C12         -0.2117 -12.5149   9.5208 C.ar           1 <1>                0.0000
     13 C13         -0.4143 -11.4087   8.5177 C.3            1 <1>                0.0000
     14 C14         -0.9355 -12.5211  10.6987 C.ar           1 <1>                0.0000
     15 C15         -1.9270 -11.4216  10.9795 C.3            1 <1>                0.0000
     16 C16         -0.7521 -13.5376  11.6171 C.ar           1 <1>                0.0000
     17 C17         -0.3349 -18.9605  13.1872 C.2            1 <1>                0.0000
     18 O18          0.7140 -19.5199  13.4582 O.co2          1 <1>                0.0000
     19 O19         -1.2439 -18.9428  13.9994 O.co2          1 <1>               -1.0000
     20 H20         -0.6948 -19.4587   8.6110 H              1 <1>                0.0000
     21 H21         -1.8413 -18.4051   9.4736 H              1 <1>                0.0000
     22 H22         -0.1749 -17.8536   9.1782 H              1 <1>                0.0000
     23 H23         -0.9853 -20.1951  10.9610 H              1 <1>                0.0000
     24 H24         -1.4973 -17.8377  11.7936 H              1 <1>                0.0000
     25 H25          1.5940 -15.3264   9.9819 H              1 <1>                0.0000
     26 H26          1.2626 -13.5189   8.3426 H              1 <1>                0.0000
     27 H27         -1.2020 -11.6912   7.8193 H              1 <1>                0.0000
     28 H28         -0.7005 -10.4945   9.0378 H              1 <1>                0.0000
     29 H29          0.5132 -11.2400   7.9704 H              1 <1>                0.0000
     30 H30         -2.9048 -11.7059  10.5905 H              1 <1>                0.0000
     31 H31         -1.9968 -11.2613  12.0554 H              1 <1>                0.0000
     32 H32         -1.5969 -10.5023  10.4958 H              1 <1>                0.0000
     33 H33         -1.3177 -13.5424  12.5372 H              1 <1>                0.0000
     34 H34          1.6361 -19.0082  10.6366 H              1 <1>                0.0000
     35 H35          1.2586 -17.3970  11.0802 H              1 <1>                0.0000
@<TRIPOS>BOND
    1    1    2 1     
    2    1   20 1     
    3    1   21 1     
    4    1   22 1     
    5    2    3 1     
    6    2    4 1     
    7    2   23 1     
    8    3   34 1     
    9    4    5 1     
   10    4   17 1     
   11    4   24 1     
   12    5    6 1     
   13    5   35 1     
   14    6    7 2     
   15    6    8 2     
   16    6    9 1     
   17    9   10 ar    
   18    9   16 ar    
   19   10   11 ar    
   20   10   25 1     
   21   11   12 ar    
   22   11   26 1     
   23   12   13 1     
   24   12   14 ar    
   25   13   27 1     
   26   13   28 1     
   27   13   29 1     
   28   14   15 1     
   29   14   16 ar    
   30   15   30 1     
   31   15   31 1     
   32   15   32 1     
   33   16   33 1     
   34   17   18 ar    
   35   17   19 ar    
@<TRIPOS>SUBSTRUCTURE
      1 ****           1
@<TRIPOS>SET
DONOR_HYDROGENS      STATIC     ATOMS    <user>   **** ""
2 34 35
ATOM$RED        STATIC     ATOMS    COLORGROUP SYSTEM
2 34 35
@<TRIPOS>COMMENT
> <Gold.Version>
2022.2.0

> <Gold.Id.Protein>
3pbl|protein|mol2

> <Gold.Protein.RotatedTorsions>
[ 1303 1298 1297 1294 ] final   16.77 input  179.99 | X-H torsion
[ 2461 2456 2455 2452 ] final   81.35 input   30.03 | X-H torsion
[ 2515 2510 2509 2506 ] final  -52.73 input  -89.99 | X-H torsion
[ 3721 3712 3711 3710 ] final    0.64 input -179.91 | X-H torsion
[ 3841 3832 3831 3830 ] final    8.16 input -179.91 | X-H torsion
[ 3767 3762 3761 3758 ] final   27.98 input  -89.99 | X-H torsion
[ 2472 2467 2466 2463 ] final   73.50 input  -89.97 | X-H torsion

> <Gold.Protein.ActiveResidues>
 VAL82   VAL86   LEU89   PHE106  VAL107  ASP110  VAL111  MET112  CYS114  THR115 
 CYS181  SER182  ILE183  PHE188  VAL189  ILE190  SER192  SER193  SER196  TRP342 
 PHE345  PHE346  HIS349  VAL350  TYR365  THR369  GLY372  TYR373 

> <Gold.Protein.RotatedAtoms>
    3.5022  -10.0668    4.2034 H   0  0  0  0  0  0  0  0  0  0  0  0  # atno 1303 bound_to 1298
    2.0973   -8.2086    7.6196 H   0  0  0  0  0  0  0  0  0  0  0  0  # atno 2461 bound_to 2456
   -4.8594   -4.8553    7.6918 H   0  0  0  0  0  0  0  0  0  0  0  0  # atno 2472 bound_to 2467
    2.8074   -8.3834    4.3620 H   0  0  0  0  0  0  0  0  0  0  0  0  # atno 2515 bound_to 2510
   -2.4856  -17.9604   14.2335 H   0  0  0  0  0  0  0  0  0  0  0  0  # atno 3721 bound_to 3712
   -5.0092  -23.0366   10.0635 H   0  0  0  0  0  0  0  0  0  0  0  0  # atno 3767 bound_to 3762
    1.8132  -20.5772    9.5922 H   0  0  0  0  0  0  0  0  0  0  0  0  # atno 3841 bound_to 3832
    4.0026   -8.5324    3.9551 LP  0  0  0  0  0  0  0  0  0  0  0  0  # atno 4297 bound_to 1298
    4.8575   -9.5219    4.9332 LP  0  0  0  0  0  0  0  0  0  0  0  0  # atno 4298 bound_to 1298
    0.5287   -8.3135    7.1767 LP  0  0  0  0  0  0  0  0  0  0  0  0  # atno 4299 bound_to 2456
    1.1120   -9.2859    8.3518 LP  0  0  0  0  0  0  0  0  0  0  0  0  # atno 4300 bound_to 2456
    2.3737   -9.1075    5.7596 LP  0  0  0  0  0  0  0  0  0  0  0  0  # atno 4301 bound_to 2510
    2.1155   -7.5082    5.5541 LP  0  0  0  0  0  0  0  0  0  0  0  0  # atno 4302 bound_to 2510
   -3.4382  -16.6886   14.4639 LP  0  0  0  0  0  0  0  0  0  0  0  0  # atno 4306 bound_to 3712
   -3.2198  -17.3021   12.9664 LP  0  0  0  0  0  0  0  0  0  0  0  0  # atno 4307 bound_to 3712
    2.0235  -19.6370    8.3085 LP  0  0  0  0  0  0  0  0  0  0  0  0  # atno 4314 bound_to 3832
    3.1114  -20.7985    8.6747 LP  0  0  0  0  0  0  0  0  0  0  0  0  # atno 4315 bound_to 3832
   -5.2033  -21.9178   11.2372 LP  0  0  0  0  0  0  0  0  0  0  0  0  # atno 4318 bound_to 3762
   -3.9150  -22.9208   11.2702 LP  0  0  0  0  0  0  0  0  0  0  0  0  # atno 4319 bound_to 3762
   -3.6556   -5.1090    8.7655 LP  0  0  0  0  0  0  0  0  0  0  0  0  # atno 4320 bound_to 2467
   -5.2019   -5.4291    9.1817 LP  0  0  0  0  0  0  0  0  0  0  0  0  # atno 4321 bound_to 2467

> <Gold.Score>
     Score     S(PLP)   S(hbond)     S(cho)   S(metal)  DE(clash)   DE(tors)     intcor
     58.12     -48.33       3.55       0.00       0.00       0.00       1.93       2.99

> <Gold.PLP.Fitness>
58.1162

> <Gold.PLP.PLP>
-48.3310

> <Gold.PLP.part.hbond>
-4.2250

> <Gold.PLP.part.metal>
0.0000

> <Gold.PLP.part.buried>
-3.9685

> <Gold.PLP.part.nonpolar>
-42.4248

> <Gold.PLP.part.repulsive>
0.1438

> <Gold.PLP.ligand.clash>
0.0000

> <Gold.PLP.ligand.torsion>
1.9312

> <Gold.PLP.Chemscore.Hbond>
3.5522

> <Gold.PLP.Chemscore.CHOScore>
0.0000

> <Gold.PLP.Chemscore.Metal>
0.0000

> <Gold.Chemscore.Hbonds>
donor molecule, donor type, donor heavy atom, donor atom, acceptor molecule, acceptor atom, score
      L1  H     3    34       P1  1227  0.99
      L1  H     5    35       P1  1227  1.00
      P1  H  3712  3721       L1    19  1.00
      P1  H  3832  3841       L1     3  0.56

> <Gold.PLP.Chemscore.Internal.Correction>
2.9910

