#       Name:                EN300-15782_i003
#       Creating user name   fsindt
#       Creation time:       Wed Mar  1 02:29:32 2023


#       File generated by GOLD software.
#

@<TRIPOS>MOLECULE
EN300-15782_i003|acide_3|mol2|9005|dock14
    35    35     1
SMALL
USER_CHARGES


@<TRIPOS>ATOM
      1 C1           0.4223 -15.2869  10.4105 C.3            1 <1>                0.0000
      2 C2          -0.3078 -16.4969  10.9967 C.3            1 <1>                0.0000
      3 O3          -0.2377 -17.5876  10.0759 O.3            1 <1>                0.0000
      4 C4           0.3523 -16.9006  12.3166 C.3            1 <1>                0.0000
      5 N5          -0.3344 -18.0714  12.8679 N.pl3          1 <1>                0.0000
      6 S6           0.0976 -18.6611  14.3538 S.o2           1 <1>                0.0000
      7 O7           1.4814 -18.3790  14.5107 O.2            1 <1>                0.0000
      8 O8          -0.8951 -18.2141  15.2670 O.2            1 <1>                0.0000
      9 C9          -0.0474 -20.4156  14.2809 C.ar           1 <1>                0.0000
     10 C10          1.0739 -21.2087  14.4360 C.ar           1 <1>                0.0000
     11 C11          0.9601 -22.5854  14.3788 C.ar           1 <1>                0.0000
     12 C12         -0.2749 -23.1685  14.1669 C.ar           1 <1>                0.0000
     13 C13         -0.3987 -24.6691  14.1041 C.3            1 <1>                0.0000
     14 C14         -1.3967 -22.3753  14.0132 C.ar           1 <1>                0.0000
     15 C15         -2.7433 -23.0112  13.7826 C.3            1 <1>                0.0000
     16 C16         -1.2835 -20.9991  14.0742 C.ar           1 <1>                0.0000
     17 C17          0.2602 -15.7576  13.2945 C.2            1 <1>                0.0000
     18 O18         -0.3554 -14.7483  12.9963 O.co2          1 <1>                0.0000
     19 O19          0.8012 -15.8422  14.3838 O.co2          1 <1>               -1.0000
     20 H20         -0.0479 -14.9993   9.4701 H              1 <1>                0.0000
     21 H21          0.3689 -14.4550  11.1128 H              1 <1>                0.0000
     22 H22          1.4662 -15.5443  10.2310 H              1 <1>                0.0000
     23 H23         -1.3517 -16.2395  11.1762 H              1 <1>                0.0000
     24 H24          1.3999 -17.1437  12.1395 H              1 <1>                0.0000
     25 H25          2.0390 -20.7530  14.6016 H              1 <1>                0.0000
     26 H26          1.8364 -23.2051  14.4993 H              1 <1>                0.0000
     27 H27         -0.5888 -25.0602  15.1035 H              1 <1>                0.0000
     28 H28         -1.2245 -24.9383  13.4454 H              1 <1>                0.0000
     29 H29          0.5276 -25.0944  13.7176 H              1 <1>                0.0000
     30 H30         -3.2279 -23.1938  14.7418 H              1 <1>                0.0000
     31 H31         -3.3629 -22.3434  13.1840 H              1 <1>                0.0000
     32 H32         -2.6134 -23.9563  13.2555 H              1 <1>                0.0000
     33 H33         -2.1600 -20.3795  13.9541 H              1 <1>                0.0000
     34 H34          0.6587 -17.9163   9.9232 H              1 <1>                0.0000
     35 H35         -1.0421 -18.5012  12.3626 H              1 <1>                0.0000
@<TRIPOS>BOND
    1    1    2 1     
    2    1   20 1     
    3    1   21 1     
    4    1   22 1     
    5    2    3 1     
    6    2    4 1     
    7    2   23 1     
    8    3   34 1     
    9    4    5 1     
   10    4   17 1     
   11    4   24 1     
   12    5    6 1     
   13    5   35 1     
   14    6    7 2     
   15    6    8 2     
   16    6    9 1     
   17    9   10 ar    
   18    9   16 ar    
   19   10   11 ar    
   20   10   25 1     
   21   11   12 ar    
   22   11   26 1     
   23   12   13 1     
   24   12   14 ar    
   25   13   27 1     
   26   13   28 1     
   27   13   29 1     
   28   14   15 1     
   29   14   16 ar    
   30   15   30 1     
   31   15   31 1     
   32   15   32 1     
   33   16   33 1     
   34   17   18 ar    
   35   17   19 ar    
@<TRIPOS>SUBSTRUCTURE
      1 ****           1
@<TRIPOS>SET
DONOR_HYDROGENS      STATIC     ATOMS    <user>   **** ""
2 34 35
ATOM$RED        STATIC     ATOMS    COLORGROUP SYSTEM
2 34 35
@<TRIPOS>COMMENT
> <Gold.Version>
2022.2.0

> <Gold.Id.Protein>
3pbl|protein|mol2

> <Gold.Protein.RotatedTorsions>
[ 1303 1298 1297 1294 ] final -158.48 input  179.99 | X-H torsion
[ 2461 2456 2455 2452 ] final  -16.34 input   30.03 | X-H torsion
[ 2515 2510 2509 2506 ] final  -36.13 input  -89.99 | X-H torsion
[ 3721 3712 3711 3710 ] final  -37.59 input -179.91 | X-H torsion
[ 3841 3832 3831 3830 ] final   17.61 input -179.91 | X-H torsion
[ 3767 3762 3761 3758 ] final -159.03 input  -89.99 | X-H torsion
[ 2472 2467 2466 2463 ] final  -54.95 input  -89.97 | X-H torsion

> <Gold.Protein.ActiveResidues>
 VAL82   VAL86   LEU89   PHE106  VAL107  ASP110  VAL111  MET112  CYS114  THR115 
 CYS181  SER182  ILE183  PHE188  VAL189  ILE190  SER192  SER193  SER196  TRP342 
 PHE345  PHE346  HIS349  VAL350  TYR365  THR369  GLY372  TYR373 

> <Gold.Protein.RotatedAtoms>
    4.6959   -8.6357    4.4776 H   0  0  0  0  0  0  0  0  0  0  0  0  # atno 1303 bound_to 1298
    0.7983   -8.0988    7.0564 H   0  0  0  0  0  0  0  0  0  0  0  0  # atno 2461 bound_to 2456
   -3.6945   -5.1588    8.8894 H   0  0  0  0  0  0  0  0  0  0  0  0  # atno 2472 bound_to 2467
    2.7492   -8.1178    4.3640 H   0  0  0  0  0  0  0  0  0  0  0  0  # atno 2515 bound_to 2510
   -2.6471  -17.6134   14.6524 H   0  0  0  0  0  0  0  0  0  0  0  0  # atno 3721 bound_to 3712
   -4.3200  -22.2865   11.6464 H   0  0  0  0  0  0  0  0  0  0  0  0  # atno 3767 bound_to 3762
    1.9151  -20.6741    9.6158 H   0  0  0  0  0  0  0  0  0  0  0  0  # atno 3841 bound_to 3832
    4.3034  -10.1863    4.8059 LP  0  0  0  0  0  0  0  0  0  0  0  0  # atno 4297 bound_to 1298
    3.3627   -9.2996    3.8081 LP  0  0  0  0  0  0  0  0  0  0  0  0  # atno 4298 bound_to 1298
    0.7782   -9.2577    8.2071 LP  0  0  0  0  0  0  0  0  0  0  0  0  # atno 4299 bound_to 2456
    2.1612   -8.4515    7.8844 LP  0  0  0  0  0  0  0  0  0  0  0  0  # atno 4300 bound_to 2456
    2.4902   -9.2196    5.5408 LP  0  0  0  0  0  0  0  0  0  0  0  0  # atno 4301 bound_to 2510
    2.0572   -7.6619    5.7709 LP  0  0  0  0  0  0  0  0  0  0  0  0  # atno 4302 bound_to 2510
   -3.5658  -16.5590   13.8637 LP  0  0  0  0  0  0  0  0  0  0  0  0  # atno 4306 bound_to 3712
   -2.9057  -17.8323   13.0830 LP  0  0  0  0  0  0  0  0  0  0  0  0  # atno 4307 bound_to 3712
    1.8893  -19.6368    8.3913 LP  0  0  0  0  0  0  0  0  0  0  0  0  # atno 4314 bound_to 3832
    3.1278  -20.6868    8.5646 LP  0  0  0  0  0  0  0  0  0  0  0  0  # atno 4315 bound_to 3832
   -4.2960  -23.3354   10.3950 LP  0  0  0  0  0  0  0  0  0  0  0  0  # atno 4318 bound_to 3762
   -5.5112  -22.2530   10.5299 LP  0  0  0  0  0  0  0  0  0  0  0  0  # atno 4319 bound_to 3762
   -5.2971   -5.4043    9.0838 LP  0  0  0  0  0  0  0  0  0  0  0  0  # atno 4320 bound_to 2467
   -4.7251   -4.8304    7.6660 LP  0  0  0  0  0  0  0  0  0  0  0  0  # atno 4321 bound_to 2467

> <Gold.Score>
     Score     S(PLP)   S(hbond)     S(cho)   S(metal)  DE(clash)   DE(tors)     intcor
     46.13     -37.55       2.99       0.00       0.00       0.00       1.69       2.98

> <Gold.PLP.Fitness>
46.1285

> <Gold.PLP.PLP>
-37.5517

> <Gold.PLP.part.hbond>
-3.5614

> <Gold.PLP.part.metal>
0.0000

> <Gold.PLP.part.buried>
-5.2990

> <Gold.PLP.part.nonpolar>
-29.4691

> <Gold.PLP.part.repulsive>
0.2008

> <Gold.PLP.ligand.clash>
0.0000

> <Gold.PLP.ligand.torsion>
1.6893

> <Gold.PLP.Chemscore.Hbond>
2.9913

> <Gold.PLP.Chemscore.CHOScore>
0.0000

> <Gold.PLP.Chemscore.Metal>
0.0000

> <Gold.Chemscore.Hbonds>
donor molecule, donor type, donor heavy atom, donor atom, acceptor molecule, acceptor atom, score
      L1  H     3    34       P1  1227  0.99
      P1  H  2305  2313       L1    19  1.00
      P1  H  3712  3721       L1     8  1.00

> <Gold.PLP.Chemscore.Internal.Correction>
2.9817

