#       Name:                EN300-15782_i003
#       Creating user name   fsindt
#       Creation time:       Wed Mar  1 02:29:31 2023


#       File generated by GOLD software.
#

@<TRIPOS>MOLECULE
EN300-15782_i003|acide_3|mol2|9005|dock13
    35    35     1
SMALL
USER_CHARGES


@<TRIPOS>ATOM
      1 C1          -1.0027 -18.6540   9.2703 C.3            1 <1>                0.0000
      2 C2          -0.5207 -19.1795  10.6240 C.3            1 <1>                0.0000
      3 O3           0.8220 -19.6531  10.5004 O.3            1 <1>                0.0000
      4 C4          -0.5705 -18.0513  11.6562 C.3            1 <1>                0.0000
      5 N5           0.5139 -17.1017  11.3945 N.pl3          1 <1>                0.0000
      6 S6           0.6492 -15.7271  12.3080 S.o2           1 <1>                0.0000
      7 O7          -0.2559 -15.8758  13.3932 O.2            1 <1>                0.0000
      8 O8           2.0405 -15.4965  12.4823 O.2            1 <1>                0.0000
      9 C9           0.0419 -14.3910  11.3329 C.ar           1 <1>                0.0000
     10 C10         -0.8776 -13.5080  11.8670 C.ar           1 <1>                0.0000
     11 C11         -1.3542 -12.4596  11.1018 C.ar           1 <1>                0.0000
     12 C12         -0.9108 -12.2944   9.8033 C.ar           1 <1>                0.0000
     13 C13         -1.4306 -11.1519   8.9693 C.3            1 <1>                0.0000
     14 C14          0.0100 -13.1768   9.2696 C.ar           1 <1>                0.0000
     15 C15          0.4938 -12.9964   7.8539 C.3            1 <1>                0.0000
     16 C16          0.4893 -14.2226  10.0358 C.ar           1 <1>                0.0000
     17 C17         -0.4100 -18.6283  13.0391 C.2            1 <1>                0.0000
     18 O18          0.6141 -18.4260  13.6690 O.co2          1 <1>                0.0000
     19 O19         -1.3043 -19.2974  13.5281 O.co2          1 <1>               -1.0000
     20 H20         -0.9671 -19.4577   8.5349 H              1 <1>                0.0000
     21 H21         -2.0267 -18.2927   9.3646 H              1 <1>                0.0000
     22 H22         -0.3576 -17.8370   8.9472 H              1 <1>                0.0000
     23 H23         -1.1658 -19.9966  10.9472 H              1 <1>                0.0000
     24 H24         -1.5289 -17.5369  11.5862 H              1 <1>                0.0000
     25 H25         -1.2241 -13.6371  12.8817 H              1 <1>                0.0000
     26 H26         -2.0732 -11.7700  11.5189 H              1 <1>                0.0000
     27 H27         -0.7893 -10.2812   9.1057 H              1 <1>                0.0000
     28 H28         -1.4325 -11.4408   7.9182 H              1 <1>                0.0000
     29 H29         -2.4463 -10.9075   9.2805 H              1 <1>                0.0000
     30 H30          1.3769 -12.3574   7.8503 H              1 <1>                0.0000
     31 H31          0.7467 -13.9680   7.4296 H              1 <1>                0.0000
     32 H32         -0.2922 -12.5329   7.2576 H              1 <1>                0.0000
     33 H33          1.2086 -14.9119   9.6188 H              1 <1>                0.0000
     34 H34          1.4901 -18.9551  10.5369 H              1 <1>                0.0000
     35 H35          1.1526 -17.2780  10.6861 H              1 <1>                0.0000
@<TRIPOS>BOND
    1    1    2 1     
    2    1   20 1     
    3    1   21 1     
    4    1   22 1     
    5    2    3 1     
    6    2    4 1     
    7    2   23 1     
    8    3   34 1     
    9    4    5 1     
   10    4   17 1     
   11    4   24 1     
   12    5    6 1     
   13    5   35 1     
   14    6    7 2     
   15    6    8 2     
   16    6    9 1     
   17    9   10 ar    
   18    9   16 ar    
   19   10   11 ar    
   20   10   25 1     
   21   11   12 ar    
   22   11   26 1     
   23   12   13 1     
   24   12   14 ar    
   25   13   27 1     
   26   13   28 1     
   27   13   29 1     
   28   14   15 1     
   29   14   16 ar    
   30   15   30 1     
   31   15   31 1     
   32   15   32 1     
   33   16   33 1     
   34   17   18 ar    
   35   17   19 ar    
@<TRIPOS>SUBSTRUCTURE
      1 ****           1
@<TRIPOS>SET
DONOR_HYDROGENS      STATIC     ATOMS    <user>   **** ""
2 34 35
ATOM$RED        STATIC     ATOMS    COLORGROUP SYSTEM
2 34 35
@<TRIPOS>COMMENT
> <Gold.Version>
2022.2.0

> <Gold.Id.Protein>
3pbl|protein|mol2

> <Gold.Protein.RotatedTorsions>
[ 1303 1298 1297 1294 ] final    9.54 input  179.99 | X-H torsion
[ 2461 2456 2455 2452 ] final -135.90 input   30.03 | X-H torsion
[ 2515 2510 2509 2506 ] final  135.91 input  -89.99 | X-H torsion
[ 3721 3712 3711 3710 ] final   27.78 input -179.91 | X-H torsion
[ 3841 3832 3831 3830 ] final   -5.27 input -179.91 | X-H torsion
[ 3767 3762 3761 3758 ] final   32.85 input  -89.99 | X-H torsion
[ 2472 2467 2466 2463 ] final  133.01 input  -89.97 | X-H torsion

> <Gold.Protein.ActiveResidues>
 VAL82   VAL86   LEU89   PHE106  VAL107  ASP110  VAL111  MET112  CYS114  THR115 
 CYS181  SER182  ILE183  PHE188  VAL189  ILE190  SER192  SER193  SER196  TRP342 
 PHE345  PHE346  HIS349  VAL350  TYR365  THR369  GLY372  TYR373 

> <Gold.Protein.RotatedAtoms>
    3.4450   -9.9894    4.1336 H   0  0  0  0  0  0  0  0  0  0  0  0  # atno 1303 bound_to 1298
    0.7722   -9.2563    8.2036 H   0  0  0  0  0  0  0  0  0  0  0  0  # atno 2461 bound_to 2456
   -5.4872   -5.1507    8.3197 H   0  0  0  0  0  0  0  0  0  0  0  0  # atno 2472 bound_to 2467
    2.0839   -8.4217    6.0963 H   0  0  0  0  0  0  0  0  0  0  0  0  # atno 2515 bound_to 2510
   -2.4789  -18.0341   13.8339 H   0  0  0  0  0  0  0  0  0  0  0  0  # atno 3721 bound_to 3712
   -4.9450  -23.0843   10.0679 H   0  0  0  0  0  0  0  0  0  0  0  0  # atno 3767 bound_to 3762
    1.6939  -20.4258    9.5305 H   0  0  0  0  0  0  0  0  0  0  0  0  # atno 3841 bound_to 3832
    4.1020   -8.4995    4.0114 LP  0  0  0  0  0  0  0  0  0  0  0  0  # atno 4297 bound_to 1298
    4.8154   -9.6322    4.9467 LP  0  0  0  0  0  0  0  0  0  0  0  0  # atno 4298 bound_to 1298
    2.1610   -8.4565    7.8894 LP  0  0  0  0  0  0  0  0  0  0  0  0  # atno 4299 bound_to 2456
    0.8044   -8.0955    7.0552 LP  0  0  0  0  0  0  0  0  0  0  0  0  # atno 4300 bound_to 2456
    2.4301   -7.4916    4.7999 LP  0  0  0  0  0  0  0  0  0  0  0  0  # atno 4301 bound_to 2510
    2.7828   -9.0858    4.7787 LP  0  0  0  0  0  0  0  0  0  0  0  0  # atno 4302 bound_to 2510
   -3.2500  -16.9714   14.7579 LP  0  0  0  0  0  0  0  0  0  0  0  0  # atno 4306 bound_to 3712
   -3.4158  -16.9342   13.1337 LP  0  0  0  0  0  0  0  0  0  0  0  0  # atno 4307 bound_to 3712
    2.2242  -19.6727    8.2161 LP  0  0  0  0  0  0  0  0  0  0  0  0  # atno 4314 bound_to 3832
    3.0485  -20.9377    8.8383 LP  0  0  0  0  0  0  0  0  0  0  0  0  # atno 4315 bound_to 3832
   -5.2551  -21.9261   11.1767 LP  0  0  0  0  0  0  0  0  0  0  0  0  # atno 4318 bound_to 3762
   -3.9274  -22.8649   11.3262 LP  0  0  0  0  0  0  0  0  0  0  0  0  # atno 4319 bound_to 3762
   -3.9369   -4.8340    7.9165 LP  0  0  0  0  0  0  0  0  0  0  0  0  # atno 4320 bound_to 2467
   -4.2929   -5.4089    9.4029 LP  0  0  0  0  0  0  0  0  0  0  0  0  # atno 4321 bound_to 2467

> <Gold.Score>
     Score     S(PLP)   S(hbond)     S(cho)   S(metal)  DE(clash)   DE(tors)     intcor
     56.61     -47.42       3.39       0.00       0.00       0.00       1.98       2.98

> <Gold.PLP.Fitness>
56.6120

> <Gold.PLP.PLP>
-47.4198

> <Gold.PLP.part.hbond>
-3.5048

> <Gold.PLP.part.metal>
0.0000

> <Gold.PLP.part.buried>
-4.7311

> <Gold.PLP.part.nonpolar>
-41.1960

> <Gold.PLP.part.repulsive>
0.1734

> <Gold.PLP.ligand.clash>
0.0000

> <Gold.PLP.ligand.torsion>
1.9800

> <Gold.PLP.Chemscore.Hbond>
3.3901

> <Gold.PLP.Chemscore.CHOScore>
0.0000

> <Gold.PLP.Chemscore.Metal>
0.0000

> <Gold.Chemscore.Hbonds>
donor molecule, donor type, donor heavy atom, donor atom, acceptor molecule, acceptor atom, score
      L1  H     3    34       P1  1227  0.99
      L1  H     5    35       P1  1227  1.00
      P1  H  3712  3721       L1    19  1.00
      P1  H  3832  3841       L1     3  0.40

> <Gold.PLP.Chemscore.Internal.Correction>
2.9817

