#       Name:                EN300-15782_i003
#       Creating user name   fsindt
#       Creation time:       Wed Mar  1 02:29:20 2023


#       File generated by GOLD software.
#

@<TRIPOS>MOLECULE
EN300-15782_i003|acide_3|mol2|9005|dock6
    35    35     1
SMALL
USER_CHARGES


@<TRIPOS>ATOM
      1 C1           2.0709 -17.5199  14.3312 C.3            1 <1>                0.0000
      2 C2           2.1075 -16.5245  13.1698 C.3            1 <1>                0.0000
      3 O3           3.2140 -16.8273  12.3176 O.3            1 <1>                0.0000
      4 C4           0.8063 -16.6246  12.3711 C.3            1 <1>                0.0000
      5 N5           0.9157 -17.7103  11.3936 N.pl3          1 <1>                0.0000
      6 S6          -0.3271 -18.7896  11.2125 S.o2           1 <1>                0.0000
      7 O7          -1.4574 -18.2108  11.8500 O.2            1 <1>                0.0000
      8 O8          -0.3215 -19.1825   9.8469 O.2            1 <1>                0.0000
      9 C9           0.0891 -20.2255  12.1449 C.ar           1 <1>                0.0000
     10 C10          1.2108 -20.2238  12.9525 C.ar           1 <1>                0.0000
     11 C11          1.5374 -21.3506  13.6842 C.ar           1 <1>                0.0000
     12 C12          0.7421 -22.4784  13.6083 C.ar           1 <1>                0.0000
     13 C13          1.0985 -23.7067  14.4054 C.3            1 <1>                0.0000
     14 C14         -0.3806 -22.4796  12.8015 C.ar           1 <1>                0.0000
     15 C15         -1.2480 -23.7091  12.7192 C.3            1 <1>                0.0000
     16 C16         -0.7093 -21.3519  12.0731 C.ar           1 <1>                0.0000
     17 C17          0.5573 -15.3240  11.6517 C.2            1 <1>                0.0000
     18 O18          1.3334 -14.9451  10.7910 O.co2          1 <1>                0.0000
     19 O19         -0.4202 -14.6507  11.9302 O.co2          1 <1>               -1.0000
     20 H20          2.9979 -17.4487  14.9001 H              1 <1>                0.0000
     21 H21          1.2269 -17.2891  14.9811 H              1 <1>                0.0000
     22 H22          1.9618 -18.5313  13.9395 H              1 <1>                0.0000
     23 H23          2.2166 -15.5131  13.5614 H              1 <1>                0.0000
     24 H24         -0.0217 -16.8287  13.0498 H              1 <1>                0.0000
     25 H25          1.8323 -19.3425  13.0118 H              1 <1>                0.0000
     26 H26          2.4143 -21.3496  14.3147 H              1 <1>                0.0000
     27 H27          0.6192 -23.6571  15.3831 H              1 <1>                0.0000
     28 H28          0.7542 -24.5955  13.8767 H              1 <1>                0.0000
     29 H29          2.1799 -23.7560  14.5330 H              1 <1>                0.0000
     30 H30         -2.0221 -23.6597  13.4850 H              1 <1>                0.0000
     31 H31         -1.7135 -23.7602  11.7349 H              1 <1>                0.0000
     32 H32         -0.6359 -24.5969  12.8782 H              1 <1>                0.0000
     33 H33         -1.5864 -21.3528  11.4429 H              1 <1>                0.0000
     34 H34          2.9957 -16.8297  11.3756 H              1 <1>                0.0000
     35 H35          1.7160 -17.7969  10.8524 H              1 <1>                0.0000
@<TRIPOS>BOND
    1    1    2 1     
    2    1   20 1     
    3    1   21 1     
    4    1   22 1     
    5    2    3 1     
    6    2    4 1     
    7    2   23 1     
    8    3   34 1     
    9    4    5 1     
   10    4   17 1     
   11    4   24 1     
   12    5    6 1     
   13    5   35 1     
   14    6    7 2     
   15    6    8 2     
   16    6    9 1     
   17    9   10 ar    
   18    9   16 ar    
   19   10   11 ar    
   20   10   25 1     
   21   11   12 ar    
   22   11   26 1     
   23   12   13 1     
   24   12   14 ar    
   25   13   27 1     
   26   13   28 1     
   27   13   29 1     
   28   14   15 1     
   29   14   16 ar    
   30   15   30 1     
   31   15   31 1     
   32   15   32 1     
   33   16   33 1     
   34   17   18 ar    
   35   17   19 ar    
@<TRIPOS>SUBSTRUCTURE
      1 ****           1
@<TRIPOS>SET
DONOR_HYDROGENS      STATIC     ATOMS    <user>   **** ""
2 34 35
ATOM$RED        STATIC     ATOMS    COLORGROUP SYSTEM
2 34 35
@<TRIPOS>COMMENT
> <Gold.Version>
2022.2.0

> <Gold.Id.Protein>
3pbl|protein|mol2

> <Gold.Protein.RotatedTorsions>
[ 1303 1298 1297 1294 ] final  -51.40 input  179.99 | X-H torsion
[ 2461 2456 2455 2452 ] final  -25.13 input   30.03 | X-H torsion
[ 2515 2510 2509 2506 ] final   -8.42 input  -89.99 | X-H torsion
[ 3721 3712 3711 3710 ] final   94.01 input -179.91 | X-H torsion
[ 3841 3832 3831 3830 ] final  -39.60 input -179.91 | X-H torsion
[ 3767 3762 3761 3758 ] final   19.62 input  -89.99 | X-H torsion
[ 2472 2467 2466 2463 ] final  128.37 input  -89.97 | X-H torsion

> <Gold.Protein.ActiveResidues>
 VAL82   VAL86   LEU89   PHE106  VAL107  ASP110  VAL111  MET112  CYS114  THR115 
 CYS181  SER182  ILE183  PHE188  VAL189  ILE190  SER192  SER193  SER196  TRP342 
 PHE345  PHE346  HIS349  VAL350  TYR365  THR369  GLY372  TYR373 

> <Gold.Protein.RotatedAtoms>
    3.4325   -9.1013    3.7803 H   0  0  0  0  0  0  0  0  0  0  0  0  # atno 1303 bound_to 1298
    0.6814   -8.1760    7.0927 H   0  0  0  0  0  0  0  0  0  0  0  0  # atno 2461 bound_to 2456
   -5.4676   -5.1237    8.2510 H   0  0  0  0  0  0  0  0  0  0  0  0  # atno 2472 bound_to 2467
    2.5967   -7.7244    4.5245 H   0  0  0  0  0  0  0  0  0  0  0  0  # atno 2515 bound_to 2510
   -2.8133  -17.5672   13.0817 H   0  0  0  0  0  0  0  0  0  0  0  0  # atno 3721 bound_to 3712
   -5.1142  -22.9480   10.0691 H   0  0  0  0  0  0  0  0  0  0  0  0  # atno 3767 bound_to 3762
    1.5613  -20.0203    9.2495 H   0  0  0  0  0  0  0  0  0  0  0  0  # atno 3841 bound_to 3832
    4.8031   -8.7688    4.6031 LP  0  0  0  0  0  0  0  0  0  0  0  0  # atno 4297 bound_to 1298
    4.1268  -10.2514    4.7084 LP  0  0  0  0  0  0  0  0  0  0  0  0  # atno 4298 bound_to 1298
    0.9041   -9.2811    8.2744 LP  0  0  0  0  0  0  0  0  0  0  0  0  # atno 4299 bound_to 2456
    2.1522   -8.3509    7.7808 LP  0  0  0  0  0  0  0  0  0  0  0  0  # atno 4300 bound_to 2456
    2.6693   -9.2403    5.1268 LP  0  0  0  0  0  0  0  0  0  0  0  0  # atno 4301 bound_to 2510
    2.0307   -8.0347    6.0243 LP  0  0  0  0  0  0  0  0  0  0  0  0  # atno 4302 bound_to 2510
   -2.7394  -17.8786   14.6550 LP  0  0  0  0  0  0  0  0  0  0  0  0  # atno 4306 bound_to 3712
   -3.5403  -16.5661   14.1050 LP  0  0  0  0  0  0  0  0  0  0  0  0  # atno 4307 bound_to 3712
    2.7201  -19.9334    8.1424 LP  0  0  0  0  0  0  0  0  0  0  0  0  # atno 4314 bound_to 3832
    2.7057  -21.1455    9.2366 LP  0  0  0  0  0  0  0  0  0  0  0  0  # atno 4315 bound_to 3832
   -5.1061  -21.9156   11.3344 LP  0  0  0  0  0  0  0  0  0  0  0  0  # atno 4318 bound_to 3762
   -3.9072  -23.0116   11.1673 LP  0  0  0  0  0  0  0  0  0  0  0  0  # atno 4319 bound_to 3762
   -3.8832   -4.8471    7.9692 LP  0  0  0  0  0  0  0  0  0  0  0  0  # atno 4320 bound_to 2467
   -4.3663   -5.4227    9.4189 LP  0  0  0  0  0  0  0  0  0  0  0  0  # atno 4321 bound_to 2467

> <Gold.Score>
     Score     S(PLP)   S(hbond)     S(cho)   S(metal)  DE(clash)   DE(tors)     intcor
     56.41     -46.74       3.89       0.00       0.00       0.00       2.50       2.99

> <Gold.PLP.Fitness>
56.4111

> <Gold.PLP.PLP>
-46.7409

> <Gold.PLP.part.hbond>
-3.8724

> <Gold.PLP.part.metal>
0.0000

> <Gold.PLP.part.buried>
-6.2859

> <Gold.PLP.part.nonpolar>
-38.5294

> <Gold.PLP.part.repulsive>
0.3510

> <Gold.PLP.ligand.clash>
0.0000

> <Gold.PLP.ligand.torsion>
2.4988

> <Gold.PLP.Chemscore.Hbond>
3.8938

> <Gold.PLP.Chemscore.CHOScore>
0.0000

> <Gold.PLP.Chemscore.Metal>
0.0000

> <Gold.Chemscore.Hbonds>
donor molecule, donor type, donor heavy atom, donor atom, acceptor molecule, acceptor atom, score
      L1  H     3    34       P1  1227  1.00
      L1  H     5    35       P1  1227  1.00
      P1  H  3712  3721       L1     7  1.00
      P1  H  3832  3841       L1     8  0.89

> <Gold.PLP.Chemscore.Internal.Correction>
2.9865

