#       Name:                plp ligand
#       Creating user name   fsindt
#       Creation time:       Wed Mar  1 02:29:11 2023


#       File generated by GOLD software.
#

@<TRIPOS>MOLECULE
plp ligand
    35    35     1
SMALL
USER_CHARGES


@<TRIPOS>ATOM
      1 C1           4.4816   0.4041  -0.7727 NONPOLAR       1 <1>                0.0000
      2 C2           3.6603  -0.7617  -0.2184 NONPOLAR       1 <1>                0.0000
      3 O3           4.0711  -1.0390   1.1220 DONACC         1 <1>                0.0000
      4 C4           2.1759  -0.3911  -0.2305 NONPOLAR       1 <1>                0.0000
      5 N5           1.9795   0.8622   0.5022 DONOR          1 <1>                0.0000
      6 S6           0.8269   1.9413   0.0029 NONPOLAR       1 <1>                0.0000
      7 O7           0.8609   3.0207   0.9264 ACCEPTOR       1 <1>                0.0000
      8 O8           1.0134   2.1090  -1.3958 ACCEPTOR       1 <1>                0.0000
      9 C9          -0.7402   1.1618   0.2059 NONPOLAR       1 <1>                0.0000
     10 C10         -1.4278   1.2927   1.3977 NONPOLAR       1 <1>                0.0000
     11 C11         -2.6575   0.6810   1.5570 NONPOLAR       1 <1>                0.0000
     12 C12         -3.1992  -0.0609   0.5244 NONPOLAR       1 <1>                0.0000
     13 C13         -4.5393  -0.7280   0.6983 NONPOLAR       1 <1>                0.0000
     14 C14         -2.5120  -0.1907  -0.6682 NONPOLAR       1 <1>                0.0000
     15 C15         -3.1029  -0.9993  -1.7942 NONPOLAR       1 <1>                0.0000
     16 C16         -1.2845   0.4240  -0.8288 NONPOLAR       1 <1>                0.0000
     17 C17          1.3790  -1.4879   0.4276 NONPOLAR       1 <1>                0.0000
     18 O18          1.1686  -1.4524   1.6280 ACCEPTOR       1 <1>                0.0000
     19 O19          0.9446  -2.4107  -0.2404 ACCEPTOR       1 <1>               -1.0000
     20 H20          5.5391   0.1401  -0.7640                1 <1>                0.0000
     21 H21          4.1682   0.6156  -1.7950                1 <1>                0.0000
     22 H22          4.3225   1.2872  -0.1539                1 <1>                0.0000
     23 H23          3.8194  -1.6449  -0.8372                1 <1>                0.0000
     24 H24          1.8410  -0.2664  -1.2602                1 <1>                0.0000
     25 H25         -1.0045   1.8725   2.2046                1 <1>                0.0000
     26 H26         -3.1945   0.7827   2.4885                1 <1>                0.0000
     27 H27         -5.3283  -0.0469   0.3797                1 <1>                0.0000
     28 H28         -4.5753  -1.6341   0.0935                1 <1>                0.0000
     29 H29         -4.6835  -0.9857   1.7476                1 <1>                0.0000
     30 H30         -3.7114  -0.3521  -2.4259                1 <1>                0.0000
     31 H31         -2.3001  -1.4361  -2.3882                1 <1>                0.0000
     32 H32         -3.7248  -1.7945  -1.3831                1 <1>                0.0000
     33 H33         -0.7477   0.3226  -1.7605                1 <1>                0.0000
     34 H34          3.9577  -0.2956   1.7298                1 <1>                0.0000
     35 H35          2.5246   1.0600   1.2798                1 <1>                0.0000
@<TRIPOS>BOND
    1    1    2 1     
    2    1   20 1     
    3    1   21 1     
    4    1   22 1     
    5    2    3 1     
    6    2    4 1     
    7    2   23 1     
    8    3   34 1     
    9    4    5 1     
   10    4   17 1     
   11    4   24 1     
   12    5    6 1     
   13    5   35 1     
   14    6    7 2     
   15    6    8 2     
   16    6    9 1     
   17    9   10 ar    
   18    9   16 ar    
   19   10   11 ar    
   20   10   25 1     
   21   11   12 ar    
   22   11   26 1     
   23   12   13 1     
   24   12   14 ar    
   25   13   27 1     
   26   13   28 1     
   27   13   29 1     
   28   14   15 1     
   29   14   16 ar    
   30   15   30 1     
   31   15   31 1     
   32   15   32 1     
   33   16   33 1     
   34   17   18 ar    
   35   17   19 ar    
@<TRIPOS>SUBSTRUCTURE
      1 ****           1
@<TRIPOS>SET
DONOR_HYDROGENS      STATIC     ATOMS    <user>   **** ""
2 34 35
ATOM$RED        STATIC     ATOMS    COLORGROUP SYSTEM
2 34 35
