#       Name:                EN300-97777_i001
#       Creating user name   fsindt
#       Creation time:       Mon Feb 27 18:49:08 2023


#       File generated by GOLD software.
#

@<TRIPOS>MOLECULE
EN300-97777_i001|acide_1|mol2|382|dock20
    29    28     1
SMALL
USER_CHARGES


@<TRIPOS>ATOM
      1 C1           1.4985 -19.5414  14.6851 C.3            1 <1>                0.0000
      2 C2           0.7189 -20.3425  13.6406 C.3            1 <1>                0.0000
      3 C3          -0.7137 -19.8119  13.5557 C.3            1 <1>                0.0000
      4 C4           1.3975 -20.1991  12.2769 C.3            1 <1>                0.0000
      5 O5           0.6943 -21.7428  14.0240 O.3            1 <1>                0.0000
      6 C6          -0.0816 -22.5637  13.2911 C.2            1 <1>                0.0000
      7 O7          -0.4917 -22.2034  12.2056 O.2            1 <1>                0.0000
      8 N8          -0.4032 -23.7850  13.7616 N.am           1 <1>                0.0000
      9 C9           0.0913 -24.2194  15.0704 C.3            1 <1>                0.0000
     10 C10         -1.0259 -24.7583  15.8630 C.1            1 <1>                0.0000
     11 C11         -1.9169 -25.1881  16.4951 C.1            1 <1>                0.0000
     12 C12         -1.2474 -24.6782  12.9643 C.3            1 <1>                0.0000
     13 C13         -2.5603 -23.9991  12.6707 C.2            1 <1>                0.0000
     14 O14         -3.3636 -24.5242  11.9188 O.co2          1 <1>                0.0000
     15 O15         -2.8191 -22.9244  13.1852 O.co2          1 <1>               -1.0000
     16 H16          1.0150 -19.6436  15.6566 H              1 <1>                0.0000
     17 H17          2.5191 -19.9195  14.7455 H              1 <1>                0.0000
     18 H18          1.5170 -18.4902  14.3973 H              1 <1>                0.0000
     19 H19         -0.6952 -18.7607  13.2679 H              1 <1>                0.0000
     20 H20         -1.2691 -20.3827  12.8116 H              1 <1>                0.0000
     21 H21         -1.1972 -19.9141  14.5273 H              1 <1>                0.0000
     22 H22          2.4181 -20.5772  12.3374 H              1 <1>                0.0000
     23 H23          0.8421 -20.7698  11.5327 H              1 <1>                0.0000
     24 H24          1.4159 -19.1479  11.9891 H              1 <1>                0.0000
     25 H25          0.8470 -24.9930  14.9348 H              1 <1>                0.0000
     26 H26          0.5308 -23.3697  15.5930 H              1 <1>                0.0000
     27 H27         -2.7138 -25.5726  17.0605 H              1 <1>                0.0000
     28 H28         -0.7430 -24.9144  12.0272 H              1 <1>                0.0000
     29 H29         -1.4303 -25.5977  13.5202 H              1 <1>                0.0000
@<TRIPOS>BOND
    1    1    2 1     
    2    1   16 1     
    3    1   17 1     
    4    1   18 1     
    5    2    3 1     
    6    2    4 1     
    7    2    5 1     
    8    3   19 1     
    9    3   20 1     
   10    3   21 1     
   11    4   22 1     
   12    4   23 1     
   13    4   24 1     
   14    5    6 1     
   15    6    7 2     
   16    6    8 am    
   17    8    9 1     
   18    8   12 1     
   19    9   10 1     
   20    9   25 1     
   21    9   26 1     
   22   10   11 3     
   23   11   27 1     
   24   12   13 1     
   25   12   28 1     
   26   12   29 1     
   27   13   14 ar    
   28   13   15 ar    
@<TRIPOS>SUBSTRUCTURE
      1 ****           1
@<TRIPOS>COMMENT
> <Gold.Version>
2022.2.0

> <Gold.Id.Protein>
3pbl|protein|mol2

> <Gold.Protein.RotatedTorsions>
[ 1303 1298 1297 1294 ] final  -29.74 input  179.99 | X-H torsion
[ 2461 2456 2455 2452 ] final -161.02 input   30.03 | X-H torsion
[ 2515 2510 2509 2506 ] final  176.80 input  -89.99 | X-H torsion
[ 3721 3712 3711 3710 ] final   52.89 input -179.91 | X-H torsion
[ 3841 3832 3831 3830 ] final   -2.02 input -179.91 | X-H torsion
[ 3767 3762 3761 3758 ] final  130.38 input  -89.99 | X-H torsion
[ 2472 2467 2466 2463 ] final  136.63 input  -89.97 | X-H torsion

> <Gold.Protein.ActiveResidues>
 VAL82   VAL86   LEU89   PHE106  VAL107  ASP110  VAL111  MET112  CYS114  THR115 
 CYS181  SER182  ILE183  PHE188  VAL189  ILE190  SER192  SER193  SER196  TRP342 
 PHE345  PHE346  HIS349  VAL350  TYR365  THR369  GLY372  TYR373 

> <Gold.Protein.RotatedAtoms>
    3.3370   -9.4363    3.8439 H   0  0  0  0  0  0  0  0  0  0  0  0  # atno 1303 bound_to 1298
    1.1496   -9.2830    8.3620 H   0  0  0  0  0  0  0  0  0  0  0  0  # atno 2461 bound_to 2456
   -5.4984   -5.1716    8.3743 H   0  0  0  0  0  0  0  0  0  0  0  0  # atno 2472 bound_to 2467
    2.3022   -9.0024    5.8757 H   0  0  0  0  0  0  0  0  0  0  0  0  # atno 2515 bound_to 2510
   -2.5564  -17.9547   13.4740 H   0  0  0  0  0  0  0  0  0  0  0  0  # atno 3721 bound_to 3712
   -3.9178  -23.1019   11.0457 H   0  0  0  0  0  0  0  0  0  0  0  0  # atno 3767 bound_to 3762
    1.7197  -20.4636    9.5484 H   0  0  0  0  0  0  0  0  0  0  0  0  # atno 3841 bound_to 3832
    4.6071   -8.5664    4.3883 LP  0  0  0  0  0  0  0  0  0  0  0  0  # atno 4297 bound_to 1298
    4.4184  -10.1185    4.8595 LP  0  0  0  0  0  0  0  0  0  0  0  0  # atno 4298 bound_to 1298
    2.0824   -8.1859    7.5916 LP  0  0  0  0  0  0  0  0  0  0  0  0  # atno 4299 bound_to 2456
    0.5058   -8.3395    7.1947 LP  0  0  0  0  0  0  0  0  0  0  0  0  # atno 4300 bound_to 2456
    2.1664   -7.4459    5.4018 LP  0  0  0  0  0  0  0  0  0  0  0  0  # atno 4301 bound_to 2510
    2.8282   -8.5505    4.3975 LP  0  0  0  0  0  0  0  0  0  0  0  0  # atno 4302 bound_to 2510
   -3.0429  -17.3163   14.8646 LP  0  0  0  0  0  0  0  0  0  0  0  0  # atno 4306 bound_to 3712
   -3.5334  -16.6810   13.4425 LP  0  0  0  0  0  0  0  0  0  0  0  0  # atno 4307 bound_to 3712
    2.1750  -19.6603    8.2355 LP  0  0  0  0  0  0  0  0  0  0  0  0  # atno 4314 bound_to 3832
    3.0678  -20.9064    8.7983 LP  0  0  0  0  0  0  0  0  0  0  0  0  # atno 4315 bound_to 3832
   -5.2204  -22.8426   10.0954 LP  0  0  0  0  0  0  0  0  0  0  0  0  # atno 4318 bound_to 3762
   -4.9889  -21.9307   11.4301 LP  0  0  0  0  0  0  0  0  0  0  0  0  # atno 4319 bound_to 3762
   -3.9817   -4.8252    7.8783 LP  0  0  0  0  0  0  0  0  0  0  0  0  # atno 4320 bound_to 2467
   -4.2370   -5.3968    9.3865 LP  0  0  0  0  0  0  0  0  0  0  0  0  # atno 4321 bound_to 2467

> <Gold.Score>
     Score     S(PLP)   S(hbond)     S(cho)   S(metal)  DE(clash)   DE(tors)     intcor
     39.44     -36.79       1.00       0.00       0.00       0.00       0.40       0.44

> <Gold.PLP.Fitness>
39.4405

> <Gold.PLP.PLP>
-36.7946

> <Gold.PLP.part.hbond>
-3.0000

> <Gold.PLP.part.metal>
0.0000

> <Gold.PLP.part.buried>
-4.9197

> <Gold.PLP.part.nonpolar>
-29.6621

> <Gold.PLP.part.repulsive>
0.2443

> <Gold.PLP.ligand.clash>
0.0000

> <Gold.PLP.ligand.torsion>
0.3960

> <Gold.PLP.Chemscore.Hbond>
1.0000

> <Gold.PLP.Chemscore.CHOScore>
0.0000

> <Gold.PLP.Chemscore.Metal>
0.0000

> <Gold.Chemscore.Hbonds>
donor molecule, donor type, donor heavy atom, donor atom, acceptor molecule, acceptor atom, score
      P1  H  3762  3767       L1    14  1.00

> <Gold.PLP.Chemscore.Internal.Correction>
0.4378

