#       Name:                EN300-97777_i001
#       Creating user name   fsindt
#       Creation time:       Mon Feb 27 18:49:01 2023


#       File generated by GOLD software.
#

@<TRIPOS>MOLECULE
EN300-97777_i001|acide_1|mol2|382|dock16
    29    28     1
SMALL
USER_CHARGES


@<TRIPOS>ATOM
      1 C1          -3.0470 -11.0925  11.3081 C.3            1 <1>                0.0000
      2 C2          -2.1937 -10.4911  10.1895 C.3            1 <1>                0.0000
      3 C3          -3.0679  -9.6014   9.3034 C.3            1 <1>                0.0000
      4 C4          -1.0684  -9.6538  10.8006 C.3            1 <1>                0.0000
      5 O5          -1.6224 -11.5592   9.3890 O.3            1 <1>                0.0000
      6 C6          -0.7021 -12.3428   9.9825 C.2            1 <1>                0.0000
      7 O7          -0.5942 -12.3431  11.1928 O.2            1 <1>                0.0000
      8 N8           0.0990 -13.1267   9.2341 N.am           1 <1>                0.0000
      9 C9           1.1002 -13.9792   9.8799 C.3            1 <1>                0.0000
     10 C10          0.4368 -14.8689  10.8470 C.1            1 <1>                0.0000
     11 C11         -0.0922 -15.5785  11.6182 C.1            1 <1>                0.0000
     12 C12         -0.0313 -13.1262   7.7749 C.3            1 <1>                0.0000
     13 C13          0.8013 -12.0111   7.1966 C.2            1 <1>                0.0000
     14 O14          1.6429 -12.2551   6.3490 O.co2          1 <1>                0.0000
     15 O15          0.6332 -10.8648   7.5766 O.co2          1 <1>               -1.0000
     16 H16         -3.8487 -11.6890  10.8727 H              1 <1>                0.0000
     17 H17         -2.4242 -11.7263  11.9393 H              1 <1>                0.0000
     18 H18         -3.4760 -10.2907  11.9090 H              1 <1>                0.0000
     19 H19         -3.4968  -8.7995   9.9044 H              1 <1>                0.0000
     20 H20         -2.4600  -9.1729   8.5065 H              1 <1>                0.0000
     21 H21         -3.8697 -10.1979   8.8681 H              1 <1>                0.0000
     22 H22         -0.4456 -10.2877  11.4319 H              1 <1>                0.0000
     23 H23         -0.4605  -9.2253  10.0038 H              1 <1>                0.0000
     24 H24         -1.4973  -8.8520  11.4015 H              1 <1>                0.0000
     25 H25          1.6088 -14.5783   9.1247 H              1 <1>                0.0000
     26 H26          1.8276 -13.3557  10.3996 H              1 <1>                0.0000
     27 H27         -0.5654 -16.2131  12.3081 H              1 <1>                0.0000
     28 H28          0.3148 -14.0810   7.3789 H              1 <1>                0.0000
     29 H29         -1.0764 -12.9777   7.5035 H              1 <1>                0.0000
@<TRIPOS>BOND
    1    1    2 1     
    2    1   16 1     
    3    1   17 1     
    4    1   18 1     
    5    2    3 1     
    6    2    4 1     
    7    2    5 1     
    8    3   19 1     
    9    3   20 1     
   10    3   21 1     
   11    4   22 1     
   12    4   23 1     
   13    4   24 1     
   14    5    6 1     
   15    6    7 2     
   16    6    8 am    
   17    8    9 1     
   18    8   12 1     
   19    9   10 1     
   20    9   25 1     
   21    9   26 1     
   22   10   11 3     
   23   11   27 1     
   24   12   13 1     
   25   12   28 1     
   26   12   29 1     
   27   13   14 ar    
   28   13   15 ar    
@<TRIPOS>SUBSTRUCTURE
      1 ****           1
@<TRIPOS>COMMENT
> <Gold.Version>
2022.2.0

> <Gold.Id.Protein>
3pbl|protein|mol2

> <Gold.Protein.RotatedTorsions>
[ 1303 1298 1297 1294 ] final  144.10 input  179.99 | X-H torsion
[ 2461 2456 2455 2452 ] final -137.69 input   30.03 | X-H torsion
[ 2515 2510 2509 2506 ] final   36.28 input  -89.99 | X-H torsion
[ 3721 3712 3711 3710 ] final  -25.48 input -179.91 | X-H torsion
[ 3841 3832 3831 3830 ] final  148.17 input -179.91 | X-H torsion
[ 3767 3762 3761 3758 ] final  176.64 input  -89.99 | X-H torsion
[ 2472 2467 2466 2463 ] final   61.85 input  -89.97 | X-H torsion

> <Gold.Protein.ActiveResidues>
 VAL82   VAL86   LEU89   PHE106  VAL107  ASP110  VAL111  MET112  CYS114  THR115 
 CYS181  SER182  ILE183  PHE188  VAL189  ILE190  SER192  SER193  SER196  TRP342 
 PHE345  PHE346  HIS349  VAL350  TYR365  THR369  GLY372  TYR373 

> <Gold.Protein.RotatedAtoms>
    4.8879   -9.4076    4.9105 H   0  0  0  0  0  0  0  0  0  0  0  0  # atno 1303 bound_to 1298
    0.7967   -9.2625    8.2184 H   0  0  0  0  0  0  0  0  0  0  0  0  # atno 2461 bound_to 2456
   -4.6732   -4.8237    7.6609 H   0  0  0  0  0  0  0  0  0  0  0  0  # atno 2472 bound_to 2467
    2.2899   -7.4110    5.0916 H   0  0  0  0  0  0  0  0  0  0  0  0  # atno 2515 bound_to 2510
   -2.5794  -17.7478   14.5486 H   0  0  0  0  0  0  0  0  0  0  0  0  # atno 3721 bound_to 3712
   -4.0654  -22.5741   11.5442 H   0  0  0  0  0  0  0  0  0  0  0  0  # atno 3767 bound_to 3762
    3.1271  -20.4274    8.6445 H   0  0  0  0  0  0  0  0  0  0  0  0  # atno 3841 bound_to 3832
    3.5703  -10.1343    4.2763 LP  0  0  0  0  0  0  0  0  0  0  0  0  # atno 4297 bound_to 1298
    3.9037   -8.5795    3.9046 LP  0  0  0  0  0  0  0  0  0  0  0  0  # atno 4298 bound_to 1298
    2.1612   -8.4358    7.8687 LP  0  0  0  0  0  0  0  0  0  0  0  0  # atno 4299 bound_to 2456
    0.7797   -8.1101    7.0612 LP  0  0  0  0  0  0  0  0  0  0  0  0  # atno 4300 bound_to 2456
    2.8305   -8.8518    4.5460 LP  0  0  0  0  0  0  0  0  0  0  0  0  # atno 4301 bound_to 2510
    2.1764   -8.7368    6.0378 LP  0  0  0  0  0  0  0  0  0  0  0  0  # atno 4302 bound_to 2510
   -3.5467  -16.5612   14.0648 LP  0  0  0  0  0  0  0  0  0  0  0  0  # atno 4306 bound_to 3712
   -3.0030  -17.6750   13.0016 LP  0  0  0  0  0  0  0  0  0  0  0  0  # atno 4307 bound_to 3712
    1.9016  -20.9364    9.5473 LP  0  0  0  0  0  0  0  0  0  0  0  0  # atno 4314 bound_to 3832
    1.7155  -19.6722    8.5306 LP  0  0  0  0  0  0  0  0  0  0  0  0  # atno 4315 bound_to 3832
   -4.6160  -23.2643   10.1704 LP  0  0  0  0  0  0  0  0  0  0  0  0  # atno 4318 bound_to 3762
   -5.4457  -22.0367   10.8567 LP  0  0  0  0  0  0  0  0  0  0  0  0  # atno 4319 bound_to 3762
   -3.7144   -5.1765    8.9347 LP  0  0  0  0  0  0  0  0  0  0  0  0  # atno 4320 bound_to 2467
   -5.3293   -5.3933    9.0434 LP  0  0  0  0  0  0  0  0  0  0  0  0  # atno 4321 bound_to 2467

> <Gold.Score>
     Score     S(PLP)   S(hbond)     S(cho)   S(metal)  DE(clash)   DE(tors)     intcor
     45.81     -44.28       0.78       0.00       0.00       0.00       0.65       0.47

> <Gold.PLP.Fitness>
45.8080

> <Gold.PLP.PLP>
-44.2807

> <Gold.PLP.part.hbond>
-0.9123

> <Gold.PLP.part.metal>
0.0000

> <Gold.PLP.part.buried>
-5.8923

> <Gold.PLP.part.nonpolar>
-38.1307

> <Gold.PLP.part.repulsive>
0.1419

> <Gold.PLP.ligand.clash>
0.0002

> <Gold.PLP.ligand.torsion>
0.6471

> <Gold.PLP.Chemscore.Hbond>
0.7840

> <Gold.PLP.Chemscore.CHOScore>
0.0000

> <Gold.PLP.Chemscore.Metal>
0.0000

> <Gold.Chemscore.Hbonds>
donor molecule, donor type, donor heavy atom, donor atom, acceptor molecule, acceptor atom, score
      P1  H  2456  2461       L1    15  0.78

> <Gold.PLP.Chemscore.Internal.Correction>
0.4696

