#       Name:                EN300-97777_i001
#       Creating user name   fsindt
#       Creation time:       Mon Feb 27 18:48:49 2023


#       File generated by GOLD software.
#

@<TRIPOS>MOLECULE
EN300-97777_i001|acide_1|mol2|382|dock8
    29    28     1
SMALL
USER_CHARGES


@<TRIPOS>ATOM
      1 C1          -1.8238 -10.7306   9.0157 C.3            1 <1>                0.0000
      2 C2          -1.8143 -10.8225  10.5429 C.3            1 <1>                0.0000
      3 C3          -0.6982  -9.9367  11.1002 C.3            1 <1>                0.0000
      4 C4          -3.1623 -10.3495  11.0907 C.3            1 <1>                0.0000
      5 O5          -1.5852 -12.1992  10.9435 O.3            1 <1>                0.0000
      6 C6          -0.4439 -12.7765  10.5227 C.2            1 <1>                0.0000
      7 O7           0.3377 -12.1479   9.8369 O.2            1 <1>                0.0000
      8 N8          -0.1686 -14.0514  10.8621 N.am           1 <1>                0.0000
      9 C9           1.0732 -14.6795  10.4043 C.3            1 <1>                0.0000
     10 C10          1.1107 -14.6769   8.9327 C.1            1 <1>                0.0000
     11 C11          1.1408 -14.6748   7.7592 C.1            1 <1>                0.0000
     12 C12         -1.1112 -14.8091  11.6891 C.3            1 <1>                0.0000
     13 C13         -0.3637 -15.8619  12.4662 C.2            1 <1>                0.0000
     14 O14         -0.8290 -16.9834  12.5766 O.co2          1 <1>                0.0000
     15 O15          0.7064 -15.5921  12.9845 O.co2          1 <1>               -1.0000
     16 H16         -0.8635 -11.0675   8.6255 H              1 <1>                0.0000
     17 H17         -2.6190 -11.3616   8.6187 H              1 <1>                0.0000
     18 H18         -1.9957  -9.6971   8.7149 H              1 <1>                0.0000
     19 H19         -0.8702  -8.9032  10.7994 H              1 <1>                0.0000
     20 H20         -0.6914 -10.0022  12.1882 H              1 <1>                0.0000
     21 H21          0.2622 -10.2736  10.7099 H              1 <1>                0.0000
     22 H22         -3.9575 -10.9806  10.6936 H              1 <1>                0.0000
     23 H23         -3.1556 -10.4150  12.1787 H              1 <1>                0.0000
     24 H24         -3.3342  -9.3160  10.7899 H              1 <1>                0.0000
     25 H25          1.9262 -14.1218  10.7905 H              1 <1>                0.0000
     26 H26          1.1161 -15.7064  10.7669 H              1 <1>                0.0000
     27 H27          1.1676 -14.6729   6.7094 H              1 <1>                0.0000
     28 H28         -1.6115 -14.1327  12.3822 H              1 <1>                0.0000
     29 H29         -1.8526 -15.2876  11.0493 H              1 <1>                0.0000
@<TRIPOS>BOND
    1    1    2 1     
    2    1   16 1     
    3    1   17 1     
    4    1   18 1     
    5    2    3 1     
    6    2    4 1     
    7    2    5 1     
    8    3   19 1     
    9    3   20 1     
   10    3   21 1     
   11    4   22 1     
   12    4   23 1     
   13    4   24 1     
   14    5    6 1     
   15    6    7 2     
   16    6    8 am    
   17    8    9 1     
   18    8   12 1     
   19    9   10 1     
   20    9   25 1     
   21    9   26 1     
   22   10   11 3     
   23   11   27 1     
   24   12   13 1     
   25   12   28 1     
   26   12   29 1     
   27   13   14 ar    
   28   13   15 ar    
@<TRIPOS>SUBSTRUCTURE
      1 ****           1
@<TRIPOS>COMMENT
> <Gold.Version>
2022.2.0

> <Gold.Id.Protein>
3pbl|protein|mol2

> <Gold.Protein.RotatedTorsions>
[ 1303 1298 1297 1294 ] final   89.66 input  179.99 | X-H torsion
[ 2461 2456 2455 2452 ] final  -98.71 input   30.03 | X-H torsion
[ 2515 2510 2509 2506 ] final -152.83 input  -89.99 | X-H torsion
[ 3721 3712 3711 3710 ] final   77.65 input -179.91 | X-H torsion
[ 3841 3832 3831 3830 ] final   38.05 input -179.91 | X-H torsion
[ 3767 3762 3761 3758 ] final  172.45 input  -89.99 | X-H torsion
[ 2472 2467 2466 2463 ] final  146.95 input  -89.97 | X-H torsion

> <Gold.Protein.ActiveResidues>
 VAL82   VAL86   LEU89   PHE106  VAL107  ASP110  VAL111  MET112  CYS114  THR115 
 CYS181  SER182  ILE183  PHE188  VAL189  ILE190  SER192  SER193  SER196  TRP342 
 PHE345  PHE346  HIS349  VAL350  TYR365  THR369  GLY372  TYR373 

> <Gold.Protein.RotatedAtoms>
    4.4103  -10.1235    4.8564 H   0  0  0  0  0  0  0  0  0  0  0  0  # atno 1303 bound_to 1298
    0.3949   -8.9973    7.8132 H   0  0  0  0  0  0  0  0  0  0  0  0  # atno 2461 bound_to 2456
   -5.5098   -5.2301    8.5332 H   0  0  0  0  0  0  0  0  0  0  0  0  # atno 2472 bound_to 2467
    2.5132   -9.2329    5.4934 H   0  0  0  0  0  0  0  0  0  0  0  0  # atno 2515 bound_to 2510
   -2.6973  -17.7517   13.1967 H   0  0  0  0  0  0  0  0  0  0  0  0  # atno 3721 bound_to 3712
   -4.0321  -22.6261   11.5134 H   0  0  0  0  0  0  0  0  0  0  0  0  # atno 3767 bound_to 3762
    2.1716  -20.8430    9.6082 H   0  0  0  0  0  0  0  0  0  0  0  0  # atno 3841 bound_to 3832
    3.3383   -9.4270    3.8405 LP  0  0  0  0  0  0  0  0  0  0  0  0  # atno 4297 bound_to 1298
    4.6136   -8.5706    4.3944 LP  0  0  0  0  0  0  0  0  0  0  0  0  # atno 4298 bound_to 1298
    1.9636   -8.8914    8.2549 LP  0  0  0  0  0  0  0  0  0  0  0  0  # atno 4299 bound_to 2456
    1.3790   -7.9196    7.0800 LP  0  0  0  0  0  0  0  0  0  0  0  0  # atno 4300 bound_to 2456
    2.0492   -7.6996    5.8090 LP  0  0  0  0  0  0  0  0  0  0  0  0  # atno 4301 bound_to 2510
    2.7342   -8.0662    4.3727 LP  0  0  0  0  0  0  0  0  0  0  0  0  # atno 4302 bound_to 2510
   -2.8467  -17.6698   14.7933 LP  0  0  0  0  0  0  0  0  0  0  0  0  # atno 4306 bound_to 3712
   -3.5669  -16.5618   13.8339 LP  0  0  0  0  0  0  0  0  0  0  0  0  # atno 4307 bound_to 3712
    1.6377  -19.7060    8.6090 LP  0  0  0  0  0  0  0  0  0  0  0  0  # atno 4314 bound_to 3832
    3.0830  -20.4226    8.3557 LP  0  0  0  0  0  0  0  0  0  0  0  0  # atno 4315 bound_to 3832
   -4.6745  -23.2398   10.1432 LP  0  0  0  0  0  0  0  0  0  0  0  0  # atno 4318 bound_to 3762
   -5.4205  -22.0091   10.9148 LP  0  0  0  0  0  0  0  0  0  0  0  0  # atno 4319 bound_to 3762
   -4.1218   -4.8067    7.7844 LP  0  0  0  0  0  0  0  0  0  0  0  0  # atno 4320 bound_to 2467
   -4.0854   -5.3567    9.3216 LP  0  0  0  0  0  0  0  0  0  0  0  0  # atno 4321 bound_to 2467

> <Gold.Score>
     Score     S(PLP)   S(hbond)     S(cho)   S(metal)  DE(clash)   DE(tors)     intcor
     42.08     -42.21       0.67       0.00       0.00       1.39       0.61       0.47

> <Gold.PLP.Fitness>
42.0753

> <Gold.PLP.PLP>
-42.2117

> <Gold.PLP.part.hbond>
-1.0000

> <Gold.PLP.part.metal>
0.0000

> <Gold.PLP.part.buried>
-6.5076

> <Gold.PLP.part.nonpolar>
-35.7858

> <Gold.PLP.part.repulsive>
0.1442

> <Gold.PLP.ligand.clash>
1.3942

> <Gold.PLP.ligand.torsion>
0.6121

> <Gold.PLP.Chemscore.Hbond>
0.6708

> <Gold.PLP.Chemscore.CHOScore>
0.0000

> <Gold.PLP.Chemscore.Metal>
0.0000

> <Gold.Chemscore.Hbonds>
donor molecule, donor type, donor heavy atom, donor atom, acceptor molecule, acceptor atom, score
      P1  H  3712  3721       L1    14  0.67

> <Gold.PLP.Chemscore.Internal.Correction>
0.4696

