#       Name:                EN300-97777_i001
#       Creating user name   fsindt
#       Creation time:       Mon Feb 27 18:48:41 2023


#       File generated by GOLD software.
#

@<TRIPOS>MOLECULE
EN300-97777_i001|acide_1|mol2|382|dock2
    29    28     1
SMALL
USER_CHARGES


@<TRIPOS>ATOM
      1 C1          -3.2518 -11.4429  10.5007 C.3            1 <1>                0.0000
      2 C2          -2.0442 -10.6436  10.0071 C.3            1 <1>                0.0000
      3 C3          -2.5212  -9.3261   9.3925 C.3            1 <1>                0.0000
      4 C4          -1.1117 -10.3493  11.1838 C.3            1 <1>                0.0000
      5 O5          -1.3303 -11.4146   9.0050 O.3            1 <1>                0.0000
      6 C6          -0.7684 -12.5698   9.4083 C.2            1 <1>                0.0000
      7 O7          -0.9798 -12.9894  10.5289 O.2            1 <1>                0.0000
      8 N8           0.0285 -13.2606   8.5692 N.am           1 <1>                0.0000
      9 C9           0.6399 -14.5175   9.0081 C.3            1 <1>                0.0000
     10 C10          0.8960 -15.3734   7.8381 C.1            1 <1>                0.0000
     11 C11          1.1002 -16.0559   6.9051 C.1            1 <1>                0.0000
     12 C12          0.2833 -12.7546   7.2181 C.3            1 <1>                0.0000
     13 C13          1.0305 -11.4487   7.3035 C.2            1 <1>                0.0000
     14 O14          1.5255 -10.9628   6.3009 O.co2          1 <1>                0.0000
     15 O15          1.1402 -10.8781   8.3754 O.co2          1 <1>               -1.0000
     16 H16         -3.9161 -11.6525   9.6624 H              1 <1>                0.0000
     17 H17         -2.9119 -12.3814  10.9385 H              1 <1>                0.0000
     18 H18         -3.7878 -10.8641  11.2530 H              1 <1>                0.0000
     19 H19         -3.0571  -8.7474  10.1448 H              1 <1>                0.0000
     20 H20         -1.6609  -8.7567   9.0407 H              1 <1>                0.0000
     21 H21         -3.1856  -9.5358   8.5541 H              1 <1>                0.0000
     22 H22         -0.7719 -11.2879  11.6216 H              1 <1>                0.0000
     23 H23         -0.2514  -9.7799  10.8322 H              1 <1>                0.0000
     24 H24         -1.6477  -9.7705  11.9360 H              1 <1>                0.0000
     25 H25          1.5806 -14.3059   9.5163 H              1 <1>                0.0000
     26 H26         -0.0356 -15.0305   9.6926 H              1 <1>                0.0000
     27 H27          1.2829 -16.6664   6.0705 H              1 <1>                0.0000
     28 H28          0.8808 -13.4796   6.6653 H              1 <1>                0.0000
     29 H29         -0.6649 -12.5977   6.7040 H              1 <1>                0.0000
@<TRIPOS>BOND
    1    1    2 1     
    2    1   16 1     
    3    1   17 1     
    4    1   18 1     
    5    2    3 1     
    6    2    4 1     
    7    2    5 1     
    8    3   19 1     
    9    3   20 1     
   10    3   21 1     
   11    4   22 1     
   12    4   23 1     
   13    4   24 1     
   14    5    6 1     
   15    6    7 2     
   16    6    8 am    
   17    8    9 1     
   18    8   12 1     
   19    9   10 1     
   20    9   25 1     
   21    9   26 1     
   22   10   11 3     
   23   11   27 1     
   24   12   13 1     
   25   12   28 1     
   26   12   29 1     
   27   13   14 ar    
   28   13   15 ar    
@<TRIPOS>SUBSTRUCTURE
      1 ****           1
@<TRIPOS>COMMENT
> <Gold.Version>
2022.2.0

> <Gold.Id.Protein>
3pbl|protein|mol2

> <Gold.Protein.RotatedTorsions>
[ 1303 1298 1297 1294 ] final   -6.75 input  179.99 | X-H torsion
[ 2461 2456 2455 2452 ] final -169.97 input   30.03 | X-H torsion
[ 2515 2510 2509 2506 ] final -167.50 input  -89.99 | X-H torsion
[ 3721 3712 3711 3710 ] final  -63.10 input -179.91 | X-H torsion
[ 3841 3832 3831 3830 ] final   55.86 input -179.91 | X-H torsion
[ 3767 3762 3761 3758 ] final   -9.37 input  -89.99 | X-H torsion
[ 2472 2467 2466 2463 ] final -116.10 input  -89.97 | X-H torsion

> <Gold.Protein.ActiveResidues>
 VAL82   VAL86   LEU89   PHE106  VAL107  ASP110  VAL111  MET112  CYS114  THR115 
 CYS181  SER182  ILE183  PHE188  VAL189  ILE190  SER192  SER193  SER196  TRP342 
 PHE345  PHE346  HIS349  VAL350  TYR365  THR369  GLY372  TYR373 

> <Gold.Protein.RotatedAtoms>
    3.3567   -9.7813    3.9915 H   0  0  0  0  0  0  0  0  0  0  0  0  # atno 1303 bound_to 1298
    1.2922   -9.2610    8.3898 H   0  0  0  0  0  0  0  0  0  0  0  0  # atno 2461 bound_to 2456
   -4.4380   -5.4349    9.4288 H   0  0  0  0  0  0  0  0  0  0  0  0  # atno 2472 bound_to 2467
    2.4104   -9.1499    5.6946 H   0  0  0  0  0  0  0  0  0  0  0  0  # atno 2515 bound_to 2510
   -2.8230  -17.2903   14.7568 H   0  0  0  0  0  0  0  0  0  0  0  0  # atno 3721 bound_to 3712
   -5.3989  -22.6008   10.2145 H   0  0  0  0  0  0  0  0  0  0  0  0  # atno 3767 bound_to 3762
    2.4144  -20.9316    9.5372 H   0  0  0  0  0  0  0  0  0  0  0  0  # atno 3841 bound_to 3832
    4.3246   -8.4767    4.1572 LP  0  0  0  0  0  0  0  0  0  0  0  0  # atno 4297 bound_to 1298
    4.6812   -9.8631    4.9430 LP  0  0  0  0  0  0  0  0  0  0  0  0  # atno 4298 bound_to 1298
    2.0144   -8.1063    7.4884 LP  0  0  0  0  0  0  0  0  0  0  0  0  # atno 4299 bound_to 2456
    0.4311   -8.4411    7.2701 LP  0  0  0  0  0  0  0  0  0  0  0  0  # atno 4300 bound_to 2456
    2.0941   -7.5496    5.6261 LP  0  0  0  0  0  0  0  0  0  0  0  0  # atno 4301 bound_to 2510
    2.7922   -8.2992    4.3543 LP  0  0  0  0  0  0  0  0  0  0  0  0  # atno 4302 bound_to 2510
   -3.5366  -16.6731   13.4577 LP  0  0  0  0  0  0  0  0  0  0  0  0  # atno 4306 bound_to 3712
   -2.7319  -18.0913   13.3683 LP  0  0  0  0  0  0  0  0  0  0  0  0  # atno 4307 bound_to 3712
    1.4815  -19.8377    8.8237 LP  0  0  0  0  0  0  0  0  0  0  0  0  # atno 4314 bound_to 3832
    2.9589  -20.1884    8.2230 LP  0  0  0  0  0  0  0  0  0  0  0  0  # atno 4315 bound_to 3832
   -4.7187  -22.0221   11.5817 LP  0  0  0  0  0  0  0  0  0  0  0  0  # atno 4318 bound_to 3762
   -4.0100  -23.2521   10.7746 LP  0  0  0  0  0  0  0  0  0  0  0  0  # atno 4319 bound_to 3762
   -5.4432   -5.0972    8.1870 LP  0  0  0  0  0  0  0  0  0  0  0  0  # atno 4320 bound_to 2467
   -3.8357   -4.8614    8.0235 LP  0  0  0  0  0  0  0  0  0  0  0  0  # atno 4321 bound_to 2467

> <Gold.Score>
     Score     S(PLP)   S(hbond)     S(cho)   S(metal)  DE(clash)   DE(tors)     intcor
     46.75     -43.33       1.68       0.00       0.00       1.02       0.57       0.53

> <Gold.PLP.Fitness>
46.7504

> <Gold.PLP.PLP>
-43.3292

> <Gold.PLP.part.hbond>
-2.8032

> <Gold.PLP.part.metal>
0.0000

> <Gold.PLP.part.buried>
1.6352

> <Gold.PLP.part.nonpolar>
-43.3603

> <Gold.PLP.part.repulsive>
0.0899

> <Gold.PLP.ligand.clash>
1.0198

> <Gold.PLP.ligand.torsion>
0.5693

> <Gold.PLP.Chemscore.Hbond>
1.6820

> <Gold.PLP.Chemscore.CHOScore>
0.0000

> <Gold.PLP.Chemscore.Metal>
0.0000

> <Gold.Chemscore.Hbonds>
donor molecule, donor type, donor heavy atom, donor atom, acceptor molecule, acceptor atom, score
      P1  H  2456  2461       L1    15  1.00
      P1  H  2510  2515       L1    14  0.68

> <Gold.PLP.Chemscore.Internal.Correction>
0.5336

