#       Name:                EN300-97777_i001
#       Creating user name   fsindt
#       Creation time:       Mon Feb 27 18:48:59 2023


#       File generated by GOLD software.
#

@<TRIPOS>MOLECULE
EN300-97777_i001|acide_1|mol2|382|dock15
    29    28     1
SMALL
USER_CHARGES


@<TRIPOS>ATOM
      1 C1           1.7918 -17.1804  14.2299 C.3            1 <1>                0.0000
      2 C2           1.0204 -16.4627  13.1205 C.3            1 <1>                0.0000
      3 C3          -0.0563 -15.5711  13.7425 C.3            1 <1>                0.0000
      4 C4           1.9855 -15.6019  12.3028 C.3            1 <1>                0.0000
      5 O5           0.3941 -17.4445  12.2533 O.3            1 <1>                0.0000
      6 C6          -0.3229 -18.4166  12.8482 C.2            1 <1>                0.0000
      7 O7          -0.7880 -18.2368  13.9562 O.2            1 <1>                0.0000
      8 N8          -0.5247 -19.5889  12.2146 N.am           1 <1>                0.0000
      9 C9           0.0361 -19.8055  10.8786 C.3            1 <1>                0.0000
     10 C10         -0.6922 -18.9803   9.9011 C.1            1 <1>                0.0000
     11 C11         -1.2729 -18.3221   9.1215 C.1            1 <1>                0.0000
     12 C12         -1.3049 -20.6465  12.8618 C.3            1 <1>                0.0000
     13 C13         -0.5303 -21.9386  12.8211 C.2            1 <1>                0.0000
     14 O14         -1.0029 -22.9155  12.2655 O.co2          1 <1>                0.0000
     15 O15          0.5691 -22.0069  13.3438 O.co2          1 <1>               -1.0000
     16 H16          1.1043 -17.7935  14.8124 H              1 <1>                0.0000
     17 H17          2.5589 -17.8155  13.7867 H              1 <1>                0.0000
     18 H18          2.2619 -16.4433  14.8809 H              1 <1>                0.0000
     19 H19          0.4139 -14.8341  14.3935 H              1 <1>                0.0000
     20 H20         -0.6059 -15.0599  12.9522 H              1 <1>                0.0000
     21 H21         -0.7438 -16.1844  14.3251 H              1 <1>                0.0000
     22 H22          2.7525 -16.2371  11.8597 H              1 <1>                0.0000
     23 H23          1.4359 -15.0906  11.5125 H              1 <1>                0.0000
     24 H24          2.4556 -14.8649  12.9539 H              1 <1>                0.0000
     25 H25          1.0895 -19.5257  10.8771 H              1 <1>                0.0000
     26 H26         -0.0610 -20.8573  10.6100 H              1 <1>                0.0000
     27 H27         -1.7924 -17.7335   8.4241 H              1 <1>                0.0000
     28 H28         -1.4992 -20.3720  13.8987 H              1 <1>                0.0000
     29 H29         -2.2512 -20.7736  12.3361 H              1 <1>                0.0000
@<TRIPOS>BOND
    1    1    2 1     
    2    1   16 1     
    3    1   17 1     
    4    1   18 1     
    5    2    3 1     
    6    2    4 1     
    7    2    5 1     
    8    3   19 1     
    9    3   20 1     
   10    3   21 1     
   11    4   22 1     
   12    4   23 1     
   13    4   24 1     
   14    5    6 1     
   15    6    7 2     
   16    6    8 am    
   17    8    9 1     
   18    8   12 1     
   19    9   10 1     
   20    9   25 1     
   21    9   26 1     
   22   10   11 3     
   23   11   27 1     
   24   12   13 1     
   25   12   28 1     
   26   12   29 1     
   27   13   14 ar    
   28   13   15 ar    
@<TRIPOS>SUBSTRUCTURE
      1 ****           1
@<TRIPOS>COMMENT
> <Gold.Version>
2022.2.0

> <Gold.Id.Protein>
3pbl|protein|mol2

> <Gold.Protein.RotatedTorsions>
[ 1303 1298 1297 1294 ] final -140.66 input  179.99 | X-H torsion
[ 2461 2456 2455 2452 ] final   57.37 input   30.03 | X-H torsion
[ 2515 2510 2509 2506 ] final  103.83 input  -89.99 | X-H torsion
[ 3721 3712 3711 3710 ] final    3.17 input -179.91 | X-H torsion
[ 3841 3832 3831 3830 ] final  114.16 input -179.91 | X-H torsion
[ 3767 3762 3761 3758 ] final  139.51 input  -89.99 | X-H torsion
[ 2472 2467 2466 2463 ] final  -59.03 input  -89.97 | X-H torsion

> <Gold.Protein.ActiveResidues>
 VAL82   VAL86   LEU89   PHE106  VAL107  ASP110  VAL111  MET112  CYS114  THR115 
 CYS181  SER182  ILE183  PHE188  VAL189  ILE190  SER192  SER193  SER196  TRP342 
 PHE345  PHE346  HIS349  VAL350  TYR365  THR369  GLY372  TYR373 

> <Gold.Protein.RotatedAtoms>
    4.5020   -8.5144    4.2958 H   0  0  0  0  0  0  0  0  0  0  0  0  # atno 1303 bound_to 1298
    1.8869   -8.0144    7.3521 H   0  0  0  0  0  0  0  0  0  0  0  0  # atno 2461 bound_to 2456
   -3.7202   -5.1822    8.9467 H   0  0  0  0  0  0  0  0  0  0  0  0  # atno 2472 bound_to 2467
    2.0290   -7.9196    5.9698 H   0  0  0  0  0  0  0  0  0  0  0  0  # atno 2515 bound_to 2510
   -2.4809  -17.9741   14.1981 H   0  0  0  0  0  0  0  0  0  0  0  0  # atno 3721 bound_to 3712
   -3.9066  -23.0123   11.1656 H   0  0  0  0  0  0  0  0  0  0  0  0  # atno 3767 bound_to 3762
    3.0489  -20.7751    9.0042 H   0  0  0  0  0  0  0  0  0  0  0  0  # atno 3841 bound_to 3832
    4.5303  -10.0300    4.9029 LP  0  0  0  0  0  0  0  0  0  0  0  0  # atno 4297 bound_to 1298
    3.3297   -9.5773    3.8929 LP  0  0  0  0  0  0  0  0  0  0  0  0  # atno 4298 bound_to 1298
    0.3595   -8.5912    7.3951 LP  0  0  0  0  0  0  0  0  0  0  0  0  # atno 4299 bound_to 2456
    1.4916   -9.2024    8.4008 LP  0  0  0  0  0  0  0  0  0  0  0  0  # atno 4300 bound_to 2456
    2.6448   -7.8236    4.4607 LP  0  0  0  0  0  0  0  0  0  0  0  0  # atno 4301 bound_to 2510
    2.6231   -9.2561    5.2443 LP  0  0  0  0  0  0  0  0  0  0  0  0  # atno 4302 bound_to 2510
   -3.4234  -16.7092   14.4977 LP  0  0  0  0  0  0  0  0  0  0  0  0  # atno 4306 bound_to 3712
   -3.2401  -17.2657   12.9734 LP  0  0  0  0  0  0  0  0  0  0  0  0  # atno 4307 bound_to 3712
    1.5194  -20.5435    9.4322 LP  0  0  0  0  0  0  0  0  0  0  0  0  # atno 4314 bound_to 3832
    2.1880  -19.6634    8.2302 LP  0  0  0  0  0  0  0  0  0  0  0  0  # atno 4315 bound_to 3832
   -5.1157  -22.9473   10.0699 LP  0  0  0  0  0  0  0  0  0  0  0  0  # atno 4318 bound_to 3762
   -5.1047  -21.9157   11.3357 LP  0  0  0  0  0  0  0  0  0  0  0  0  # atno 4319 bound_to 3762
   -5.3376   -5.3902    9.0322 LP  0  0  0  0  0  0  0  0  0  0  0  0  # atno 4320 bound_to 2467
   -4.6590   -4.8211    7.6603 LP  0  0  0  0  0  0  0  0  0  0  0  0  # atno 4321 bound_to 2467

> <Gold.Score>
     Score     S(PLP)   S(hbond)     S(cho)   S(metal)  DE(clash)   DE(tors)     intcor
     39.55     -37.28       1.00       0.00       0.00       0.00       0.60       0.47

> <Gold.PLP.Fitness>
39.5464

> <Gold.PLP.PLP>
-37.2799

> <Gold.PLP.part.hbond>
-1.0000

> <Gold.PLP.part.metal>
0.0000

> <Gold.PLP.part.buried>
-3.3511

> <Gold.PLP.part.nonpolar>
-32.5107

> <Gold.PLP.part.repulsive>
0.0848

> <Gold.PLP.ligand.clash>
0.0000

> <Gold.PLP.ligand.torsion>
0.6016

> <Gold.PLP.Chemscore.Hbond>
1.0000

> <Gold.PLP.Chemscore.CHOScore>
0.0000

> <Gold.PLP.Chemscore.Metal>
0.0000

> <Gold.Chemscore.Hbonds>
donor molecule, donor type, donor heavy atom, donor atom, acceptor molecule, acceptor atom, score
      P1  H  3712  3721       L1     7  1.00

> <Gold.PLP.Chemscore.Internal.Correction>
0.4696

