#       Name:                EN300-97777_i001
#       Creating user name   fsindt
#       Creation time:       Mon Feb 27 18:48:48 2023


#       File generated by GOLD software.
#

@<TRIPOS>MOLECULE
EN300-97777_i001|acide_1|mol2|382|dock7
    29    28     1
SMALL
USER_CHARGES


@<TRIPOS>ATOM
      1 C1          -0.3178 -21.8808  12.4649 C.3            1 <1>                0.0000
      2 C2           0.3386 -21.7004  13.8351 C.3            1 <1>                0.0000
      3 C3          -0.5536 -22.3189  14.9134 C.3            1 <1>                0.0000
      4 C4           1.7026 -22.3934  13.8425 C.3            1 <1>                0.0000
      5 O5           0.5136 -20.2846  14.1054 O.3            1 <1>                0.0000
      6 C6           1.4013 -19.6214  13.3405 C.2            1 <1>                0.0000
      7 O7           1.7855 -20.1078  12.2954 O.2            1 <1>                0.0000
      8 N8           1.8635 -18.4181  13.7340 N.am           1 <1>                0.0000
      9 C9           2.8294 -17.6965  12.9017 C.3            1 <1>                0.0000
     10 C10          2.2695 -16.3891  12.5219 C.1            1 <1>                0.0000
     11 C11          1.8230 -15.3466  12.2190 C.1            1 <1>                0.0000
     12 C12          1.4002 -17.8318  14.9941 C.3            1 <1>                0.0000
     13 C13          0.0569 -17.1824  14.7819 C.2            1 <1>                0.0000
     14 O14         -0.0181 -15.9767  14.6170 O.co2          1 <1>                0.0000
     15 O15         -0.9548 -17.8627  14.7752 O.co2          1 <1>               -1.0000
     16 H16         -1.2895 -21.3871  12.4597 H              1 <1>                0.0000
     17 H17          0.3178 -21.4401  11.6968 H              1 <1>                0.0000
     18 H18         -0.4492 -22.9436  12.2620 H              1 <1>                0.0000
     19 H19         -0.6849 -23.3818  14.7105 H              1 <1>                0.0000
     20 H20         -0.0860 -22.1904  15.8896 H              1 <1>                0.0000
     21 H21         -1.5254 -21.8252  14.9081 H              1 <1>                0.0000
     22 H22          2.3381 -21.9527  13.0744 H              1 <1>                0.0000
     23 H23          2.1702 -22.2649  14.8187 H              1 <1>                0.0000
     24 H24          1.5712 -23.4562  13.6397 H              1 <1>                0.0000
     25 H25          3.7522 -17.5476  13.4623 H              1 <1>                0.0000
     26 H26          3.0395 -18.2766  12.0032 H              1 <1>                0.0000
     27 H27          1.4237 -14.4140  11.9480 H              1 <1>                0.0000
     28 H28          1.3104 -18.6143  15.7476 H              1 <1>                0.0000
     29 H29          2.1166 -17.0828  15.3315 H              1 <1>                0.0000
@<TRIPOS>BOND
    1    1    2 1     
    2    1   16 1     
    3    1   17 1     
    4    1   18 1     
    5    2    3 1     
    6    2    4 1     
    7    2    5 1     
    8    3   19 1     
    9    3   20 1     
   10    3   21 1     
   11    4   22 1     
   12    4   23 1     
   13    4   24 1     
   14    5    6 1     
   15    6    7 2     
   16    6    8 am    
   17    8    9 1     
   18    8   12 1     
   19    9   10 1     
   20    9   25 1     
   21    9   26 1     
   22   10   11 3     
   23   11   27 1     
   24   12   13 1     
   25   12   28 1     
   26   12   29 1     
   27   13   14 ar    
   28   13   15 ar    
@<TRIPOS>SUBSTRUCTURE
      1 ****           1
@<TRIPOS>COMMENT
> <Gold.Version>
2022.2.0

> <Gold.Id.Protein>
3pbl|protein|mol2

> <Gold.Protein.RotatedTorsions>
[ 1303 1298 1297 1294 ] final  -86.44 input  179.99 | X-H torsion
[ 2461 2456 2455 2452 ] final   38.61 input   30.03 | X-H torsion
[ 2515 2510 2509 2506 ] final  -20.58 input  -89.99 | X-H torsion
[ 3721 3712 3711 3710 ] final    1.22 input -179.91 | X-H torsion
[ 3841 3832 3831 3830 ] final -171.19 input -179.91 | X-H torsion
[ 3767 3762 3761 3758 ] final  -25.09 input  -89.99 | X-H torsion
[ 2472 2467 2466 2463 ] final -121.71 input  -89.97 | X-H torsion

> <Gold.Protein.ActiveResidues>
 VAL82   VAL86   LEU89   PHE106  VAL107  ASP110  VAL111  MET112  CYS114  THR115 
 CYS181  SER182  ILE183  PHE188  VAL189  ILE190  SER192  SER193  SER196  TRP342 
 PHE345  PHE346  HIS349  VAL350  TYR365  THR369  GLY372  TYR373 

> <Gold.Protein.RotatedAtoms>
    3.7814   -8.6593    3.8512 H   0  0  0  0  0  0  0  0  0  0  0  0  # atno 1303 bound_to 1298
    1.6426   -7.9321    7.1847 H   0  0  0  0  0  0  0  0  0  0  0  0  # atno 2461 bound_to 2456
   -4.5294   -5.4468    9.4338 H   0  0  0  0  0  0  0  0  0  0  0  0  # atno 2472 bound_to 2467
    2.6706   -7.8847    4.4311 H   0  0  0  0  0  0  0  0  0  0  0  0  # atno 2515 bound_to 2510
   -2.4845  -17.9636   14.2255 H   0  0  0  0  0  0  0  0  0  0  0  0  # atno 3721 bound_to 3712
   -5.4840  -22.4092   10.3649 H   0  0  0  0  0  0  0  0  0  0  0  0  # atno 3767 bound_to 3762
    2.8748  -19.9526    8.3756 H   0  0  0  0  0  0  0  0  0  0  0  0  # atno 3841 bound_to 3832
    4.9095   -9.2597    4.8676 LP  0  0  0  0  0  0  0  0  0  0  0  0  # atno 4297 bound_to 1298
    3.6714  -10.2026    4.3730 LP  0  0  0  0  0  0  0  0  0  0  0  0  # atno 4298 bound_to 1298
    0.3332   -8.8123    7.6068 LP  0  0  0  0  0  0  0  0  0  0  0  0  # atno 4299 bound_to 2456
    1.7620   -9.0635    8.3565 LP  0  0  0  0  0  0  0  0  0  0  0  0  # atno 4300 bound_to 2456
    2.5951   -9.2577    5.3114 LP  0  0  0  0  0  0  0  0  0  0  0  0  # atno 4301 bound_to 2510
    2.0309   -7.8570    5.9331 LP  0  0  0  0  0  0  0  0  0  0  0  0  # atno 4302 bound_to 2510
   -3.4349  -16.6932   14.4717 LP  0  0  0  0  0  0  0  0  0  0  0  0  # atno 4306 bound_to 3712
   -3.2244  -17.2939   12.9678 LP  0  0  0  0  0  0  0  0  0  0  0  0  # atno 4307 bound_to 3712
    2.5039  -21.1559    9.3709 LP  0  0  0  0  0  0  0  0  0  0  0  0  # atno 4314 bound_to 3832
    1.4046  -20.0012    9.0177 LP  0  0  0  0  0  0  0  0  0  0  0  0  # atno 4315 bound_to 3832
   -4.5009  -22.1465   11.6422 LP  0  0  0  0  0  0  0  0  0  0  0  0  # atno 4318 bound_to 3762
   -4.1428  -23.3193   10.5638 LP  0  0  0  0  0  0  0  0  0  0  0  0  # atno 4319 bound_to 3762
   -5.4051   -5.0650    8.1094 LP  0  0  0  0  0  0  0  0  0  0  0  0  # atno 4320 bound_to 2467
   -3.7825   -4.8818    8.0961 LP  0  0  0  0  0  0  0  0  0  0  0  0  # atno 4321 bound_to 2467

> <Gold.Score>
     Score     S(PLP)   S(hbond)     S(cho)   S(metal)  DE(clash)   DE(tors)     intcor
     38.13     -33.37       2.00       0.00       0.00       0.00       0.85       0.47

> <Gold.PLP.Fitness>
38.1318

> <Gold.PLP.PLP>
-33.3711

> <Gold.PLP.part.hbond>
-1.8284

> <Gold.PLP.part.metal>
0.0000

> <Gold.PLP.part.buried>
-3.4225

> <Gold.PLP.part.nonpolar>
-29.1884

> <Gold.PLP.part.repulsive>
0.1531

> <Gold.PLP.ligand.clash>
0.0000

> <Gold.PLP.ligand.torsion>
0.8545

> <Gold.PLP.Chemscore.Hbond>
2.0000

> <Gold.PLP.Chemscore.CHOScore>
0.0000

> <Gold.PLP.Chemscore.Metal>
0.0000

> <Gold.Chemscore.Hbonds>
donor molecule, donor type, donor heavy atom, donor atom, acceptor molecule, acceptor atom, score
      P1  H  2305  2313       L1    14  1.00
      P1  H  3712  3721       L1    15  1.00

> <Gold.PLP.Chemscore.Internal.Correction>
0.4696

