#       Name:                EN300-97777_i001
#       Creating user name   fsindt
#       Creation time:       Mon Feb 27 18:48:58 2023


#       File generated by GOLD software.
#

@<TRIPOS>MOLECULE
EN300-97777_i001|acide_1|mol2|382|dock14
    29    28     1
SMALL
USER_CHARGES


@<TRIPOS>ATOM
      1 C1           0.7998 -13.1060   6.6268 C.3            1 <1>                0.0000
      2 C2           0.2521 -13.7193   7.9170 C.3            1 <1>                0.0000
      3 C3          -0.0389 -15.2045   7.6924 C.3            1 <1>                0.0000
      4 C4           1.2863 -13.5654   9.0340 C.3            1 <1>                0.0000
      5 O5          -0.9732 -13.0379   8.2948 O.3            1 <1>                0.0000
      6 C6          -0.8627 -11.7550   8.6886 C.2            1 <1>                0.0000
      7 O7           0.1294 -11.1148   8.4017 O.2            1 <1>                0.0000
      8 N8          -1.8526 -11.1812   9.4008 N.am           1 <1>                0.0000
      9 C9          -1.7325  -9.7854   9.8293 C.3            1 <1>                0.0000
     10 C10         -0.7026  -9.6803  10.8758 C.1            1 <1>                0.0000
     11 C11          0.1188  -9.5964  11.7103 C.1            1 <1>                0.0000
     12 C12         -3.0487 -11.9532   9.7465 C.3            1 <1>                0.0000
     13 C13         -4.1849 -11.0105  10.0492 C.2            1 <1>                0.0000
     14 O14         -4.1443 -10.3061  11.0435 O.co2          1 <1>                0.0000
     15 O15         -5.1448 -10.9523   9.2996 O.co2          1 <1>               -1.0000
     16 H16          0.0630 -13.2156   5.8311 H              1 <1>                0.0000
     17 H17          1.0071 -12.0479   6.7869 H              1 <1>                0.0000
     18 H18          1.7196 -13.6175   6.3432 H              1 <1>                0.0000
     19 H19          0.8809 -15.7160   7.4088 H              1 <1>                0.0000
     20 H20         -0.4291 -15.6414   8.6115 H              1 <1>                0.0000
     21 H21         -0.7757 -15.3141   6.8966 H              1 <1>                0.0000
     22 H22          1.4935 -12.5073   9.1940 H              1 <1>                0.0000
     23 H23          0.8961 -14.0024   9.9532 H              1 <1>                0.0000
     24 H24          2.2061 -14.0770   8.7504 H              1 <1>                0.0000
     25 H25         -1.4494  -9.1670   8.9776 H              1 <1>                0.0000
     26 H26         -2.6887  -9.4432  10.2250 H              1 <1>                0.0000
     27 H27          0.8535  -9.5214  12.4568 H              1 <1>                0.0000
     28 H28         -3.3221 -12.5944   8.9085 H              1 <1>                0.0000
     29 H29         -2.8437 -12.5681  10.6228 H              1 <1>                0.0000
@<TRIPOS>BOND
    1    1    2 1     
    2    1   16 1     
    3    1   17 1     
    4    1   18 1     
    5    2    3 1     
    6    2    4 1     
    7    2    5 1     
    8    3   19 1     
    9    3   20 1     
   10    3   21 1     
   11    4   22 1     
   12    4   23 1     
   13    4   24 1     
   14    5    6 1     
   15    6    7 2     
   16    6    8 am    
   17    8    9 1     
   18    8   12 1     
   19    9   10 1     
   20    9   25 1     
   21    9   26 1     
   22   10   11 3     
   23   11   27 1     
   24   12   13 1     
   25   12   28 1     
   26   12   29 1     
   27   13   14 ar    
   28   13   15 ar    
@<TRIPOS>SUBSTRUCTURE
      1 ****           1
@<TRIPOS>COMMENT
> <Gold.Version>
2022.2.0

> <Gold.Id.Protein>
3pbl|protein|mol2

> <Gold.Protein.RotatedTorsions>
[ 1303 1298 1297 1294 ] final -129.99 input  179.99 | X-H torsion
[ 2461 2456 2455 2452 ] final -143.45 input   30.03 | X-H torsion
[ 2515 2510 2509 2506 ] final  147.87 input  -89.99 | X-H torsion
[ 3721 3712 3711 3710 ] final  -26.14 input -179.91 | X-H torsion
[ 3841 3832 3831 3830 ] final  -32.52 input -179.91 | X-H torsion
[ 3767 3762 3761 3758 ] final  160.24 input  -89.99 | X-H torsion
[ 2472 2467 2466 2463 ] final  -26.27 input  -89.97 | X-H torsion

> <Gold.Protein.ActiveResidues>
 VAL82   VAL86   LEU89   PHE106  VAL107  ASP110  VAL111  MET112  CYS114  THR115 
 CYS181  SER182  ILE183  PHE188  VAL189  ILE190  SER192  SER193  SER196  TRP342 
 PHE345  PHE346  HIS349  VAL350  TYR365  THR369  GLY372  TYR373 

> <Gold.Protein.RotatedAtoms>
    4.3672   -8.4809    4.1891 H   0  0  0  0  0  0  0  0  0  0  0  0  # atno 1303 bound_to 1298
    0.8791   -9.2780    8.2627 H   0  0  0  0  0  0  0  0  0  0  0  0  # atno 2461 bound_to 2456
   -3.6437   -4.9964    8.4545 H   0  0  0  0  0  0  0  0  0  0  0  0  # atno 2472 bound_to 2467
    2.1337   -8.6105    6.0748 H   0  0  0  0  0  0  0  0  0  0  0  0  # atno 2515 bound_to 2510
   -2.5827  -17.7409   14.5551 H   0  0  0  0  0  0  0  0  0  0  0  0  # atno 3721 bound_to 3712
   -3.9563  -22.7764   11.4043 H   0  0  0  0  0  0  0  0  0  0  0  0  # atno 3767 bound_to 3762
    1.5663  -20.1013    9.3190 H   0  0  0  0  0  0  0  0  0  0  0  0  # atno 3841 bound_to 3832
    4.6486   -9.9051    4.9366 LP  0  0  0  0  0  0  0  0  0  0  0  0  # atno 4297 bound_to 1298
    3.3464   -9.7357    3.9660 LP  0  0  0  0  0  0  0  0  0  0  0  0  # atno 4298 bound_to 1298
    2.1556   -8.3698    7.8009 LP  0  0  0  0  0  0  0  0  0  0  0  0  # atno 4299 bound_to 2456
    0.7030   -8.1605    7.0847 LP  0  0  0  0  0  0  0  0  0  0  0  0  # atno 4300 bound_to 2456
    2.3465   -7.4303    4.9668 LP  0  0  0  0  0  0  0  0  0  0  0  0  # atno 4301 bound_to 2510
    2.8167   -8.9581    4.6332 LP  0  0  0  0  0  0  0  0  0  0  0  0  # atno 4302 bound_to 2510
   -3.5483  -16.5601   14.0539 LP  0  0  0  0  0  0  0  0  0  0  0  0  # atno 4306 bound_to 3712
   -2.9976  -17.6840   13.0051 LP  0  0  0  0  0  0  0  0  0  0  0  0  # atno 4307 bound_to 3712
    2.6258  -19.8623    8.1372 LP  0  0  0  0  0  0  0  0  0  0  0  0  # atno 4314 bound_to 3832
    2.7942  -21.1229    9.1616 LP  0  0  0  0  0  0  0  0  0  0  0  0  # atno 4315 bound_to 3832
   -4.8448  -23.1505   10.0862 LP  0  0  0  0  0  0  0  0  0  0  0  0  # atno 4318 bound_to 3762
   -5.3260  -21.9482   11.0808 LP  0  0  0  0  0  0  0  0  0  0  0  0  # atno 4319 bound_to 3762
   -4.9227   -5.4616    9.3569 LP  0  0  0  0  0  0  0  0  0  0  0  0  # atno 4320 bound_to 2467
   -5.1503   -4.9355    7.8278 LP  0  0  0  0  0  0  0  0  0  0  0  0  # atno 4321 bound_to 2467

> <Gold.Score>
     Score     S(PLP)   S(hbond)     S(cho)   S(metal)  DE(clash)   DE(tors)     intcor
     50.55     -48.64       1.00       0.00       0.00       0.00       0.78       0.47

> <Gold.PLP.Fitness>
50.5538

> <Gold.PLP.PLP>
-48.6415

> <Gold.PLP.part.hbond>
-1.0000

> <Gold.PLP.part.metal>
0.0000

> <Gold.PLP.part.buried>
-1.3678

> <Gold.PLP.part.nonpolar>
-48.1112

> <Gold.PLP.part.repulsive>
0.2421

> <Gold.PLP.ligand.clash>
0.0017

> <Gold.PLP.ligand.torsion>
0.7778

> <Gold.PLP.Chemscore.Hbond>
1.0000

> <Gold.PLP.Chemscore.CHOScore>
0.0000

> <Gold.PLP.Chemscore.Metal>
0.0000

> <Gold.Chemscore.Hbonds>
donor molecule, donor type, donor heavy atom, donor atom, acceptor molecule, acceptor atom, score
      P1  H  2456  2461       L1     7  1.00

> <Gold.PLP.Chemscore.Internal.Correction>
0.4696

