#       Name:                EN300-97777_i001
#       Creating user name   fsindt
#       Creation time:       Mon Feb 27 18:49:02 2023


#       File generated by GOLD software.
#

@<TRIPOS>MOLECULE
EN300-97777_i001|acide_1|mol2|382|dock17
    29    28     1
SMALL
USER_CHARGES


@<TRIPOS>ATOM
      1 C1           0.7823 -14.0408   6.7060 C.3            1 <1>                0.0000
      2 C2           0.2859 -14.4743   8.0868 C.3            1 <1>                0.0000
      3 C3          -0.1218 -15.9484   8.0426 C.3            1 <1>                0.0000
      4 C4           1.4043 -14.2851   9.1135 C.3            1 <1>                0.0000
      5 O5          -0.8599 -13.6665   8.4648 O.3            1 <1>                0.0000
      6 C6          -0.6365 -12.3588   8.6951 C.2            1 <1>                0.0000
      7 O7           0.3974 -11.8435   8.3184 O.2            1 <1>                0.0000
      8 N8          -1.5598 -11.6214   9.3434 N.am           1 <1>                0.0000
      9 C9          -2.8063 -12.2427   9.7976 C.3            1 <1>                0.0000
     10 C10         -3.8605 -11.2192   9.8875 C.1            1 <1>                0.0000
     11 C11         -4.7011 -10.4029   9.9592 C.1            1 <1>                0.0000
     12 C12         -1.3168 -10.1986   9.5940 C.3            1 <1>                0.0000
     13 C13         -0.1703 -10.0474  10.5603 C.2            1 <1>                0.0000
     14 O14         -0.3803  -9.6745  11.7019 O.co2          1 <1>                0.0000
     15 O15          0.9673 -10.2980  10.2004 O.co2          1 <1>               -1.0000
     16 H16         -0.0145 -14.1756   5.9746 H              1 <1>                0.0000
     17 H17          1.0727 -12.9907   6.7376 H              1 <1>                0.0000
     18 H18          1.6424 -14.6473   6.4222 H              1 <1>                0.0000
     19 H19          0.7383 -16.5548   7.7588 H              1 <1>                0.0000
     20 H20         -0.4755 -16.2572   9.0262 H              1 <1>                0.0000
     21 H21         -0.9186 -16.0832   7.3111 H              1 <1>                0.0000
     22 H22          1.6948 -13.2349   9.1449 H              1 <1>                0.0000
     23 H23          1.0507 -14.5939  10.0971 H              1 <1>                0.0000
     24 H24          2.2644 -14.8916   8.8297 H              1 <1>                0.0000
     25 H25         -3.1077 -13.0133   9.0881 H              1 <1>                0.0000
     26 H26         -2.6519 -12.6922  10.7785 H              1 <1>                0.0000
     27 H27         -5.4531  -9.6728  10.0233 H              1 <1>                0.0000
     28 H28         -1.0693  -9.7015   8.6560 H              1 <1>                0.0000
     29 H29         -2.2126  -9.7463  10.0195 H              1 <1>                0.0000
@<TRIPOS>BOND
    1    1    2 1     
    2    1   16 1     
    3    1   17 1     
    4    1   18 1     
    5    2    3 1     
    6    2    4 1     
    7    2    5 1     
    8    3   19 1     
    9    3   20 1     
   10    3   21 1     
   11    4   22 1     
   12    4   23 1     
   13    4   24 1     
   14    5    6 1     
   15    6    7 2     
   16    6    8 am    
   17    8    9 1     
   18    8   12 1     
   19    9   10 1     
   20    9   25 1     
   21    9   26 1     
   22   10   11 3     
   23   11   27 1     
   24   12   13 1     
   25   12   28 1     
   26   12   29 1     
   27   13   14 ar    
   28   13   15 ar    
@<TRIPOS>SUBSTRUCTURE
      1 ****           1
@<TRIPOS>COMMENT
> <Gold.Version>
2022.2.0

> <Gold.Id.Protein>
3pbl|protein|mol2

> <Gold.Protein.RotatedTorsions>
[ 1303 1298 1297 1294 ] final -133.22 input  179.99 | X-H torsion
[ 2461 2456 2455 2452 ] final -165.68 input   30.03 | X-H torsion
[ 2515 2510 2509 2506 ] final  -42.69 input  -89.99 | X-H torsion
[ 3721 3712 3711 3710 ] final -169.69 input -179.91 | X-H torsion
[ 3841 3832 3831 3830 ] final   99.27 input -179.91 | X-H torsion
[ 3767 3762 3761 3758 ] final   87.29 input  -89.99 | X-H torsion
[ 2472 2467 2466 2463 ] final  117.13 input  -89.97 | X-H torsion

> <Gold.Protein.ActiveResidues>
 VAL82   VAL86   LEU89   PHE106  VAL107  ASP110  VAL111  MET112  CYS114  THR115 
 CYS181  SER182  ILE183  PHE188  VAL189  ILE190  SER192  SER193  SER196  TRP342 
 PHE345  PHE346  HIS349  VAL350  TYR365  THR369  GLY372  TYR373 

> <Gold.Protein.RotatedAtoms>
    4.4091   -8.4878    4.2209 H   0  0  0  0  0  0  0  0  0  0  0  0  # atno 1303 bound_to 1298
    1.2239   -9.2736    8.3785 H   0  0  0  0  0  0  0  0  0  0  0  0  # atno 2461 bound_to 2456
   -5.3961   -5.0591    8.0935 H   0  0  0  0  0  0  0  0  0  0  0  0  # atno 2472 bound_to 2467
    2.7756   -8.2217    4.3545 H   0  0  0  0  0  0  0  0  0  0  0  0  # atno 2515 bound_to 2510
   -3.3366  -16.5588   13.6938 H   0  0  0  0  0  0  0  0  0  0  0  0  # atno 3721 bound_to 3712
   -4.2225  -23.3330   10.4682 H   0  0  0  0  0  0  0  0  0  0  0  0  # atno 3767 bound_to 3762
    2.9343  -20.8779    9.1673 H   0  0  0  0  0  0  0  0  0  0  0  0  # atno 3841 bound_to 3832
    4.6146   -9.9450    4.9285 LP  0  0  0  0  0  0  0  0  0  0  0  0  # atno 4297 bound_to 1298
    3.3384   -9.6889    3.9423 LP  0  0  0  0  0  0  0  0  0  0  0  0  # atno 4298 bound_to 1298
    2.0494   -8.1430    7.5373 LP  0  0  0  0  0  0  0  0  0  0  0  0  # atno 4299 bound_to 2456
    0.4645   -8.3918    7.2325 LP  0  0  0  0  0  0  0  0  0  0  0  0  # atno 4300 bound_to 2456
    2.4442   -9.1837    5.6314 LP  0  0  0  0  0  0  0  0  0  0  0  0  # atno 4301 bound_to 2510
    2.0767   -7.5937    5.6897 LP  0  0  0  0  0  0  0  0  0  0  0  0  # atno 4302 bound_to 2510
   -2.7964  -17.9995   13.2349 LP  0  0  0  0  0  0  0  0  0  0  0  0  # atno 4306 bound_to 3712
   -2.8791  -17.6093   14.8185 LP  0  0  0  0  0  0  0  0  0  0  0  0  # atno 4307 bound_to 3712
    1.4268  -20.3466    9.3132 LP  0  0  0  0  0  0  0  0  0  0  0  0  # atno 4314 bound_to 3832
    2.4130  -19.7415    8.1608 LP  0  0  0  0  0  0  0  0  0  0  0  0  # atno 4315 bound_to 3832
   -5.5048  -22.3219   10.4523 LP  0  0  0  0  0  0  0  0  0  0  0  0  # atno 4318 bound_to 3762
   -4.3999  -22.2205   11.6504 LP  0  0  0  0  0  0  0  0  0  0  0  0  # atno 4319 bound_to 3762
   -3.7724   -4.8862    8.1116 LP  0  0  0  0  0  0  0  0  0  0  0  0  # atno 4320 bound_to 2467
   -4.5485   -5.4482    9.4339 LP  0  0  0  0  0  0  0  0  0  0  0  0  # atno 4321 bound_to 2467

> <Gold.Score>
     Score     S(PLP)   S(hbond)     S(cho)   S(metal)  DE(clash)   DE(tors)     intcor
     48.33     -46.75       0.87       0.00       0.00       0.00       0.75       0.47

> <Gold.PLP.Fitness>
48.3300

> <Gold.PLP.PLP>
-46.7522

> <Gold.PLP.part.hbond>
-1.0000

> <Gold.PLP.part.metal>
0.0000

> <Gold.PLP.part.buried>
-1.3879

> <Gold.PLP.part.nonpolar>
-45.8974

> <Gold.PLP.part.repulsive>
0.0922

> <Gold.PLP.ligand.clash>
0.0000

> <Gold.PLP.ligand.torsion>
0.7544

> <Gold.PLP.Chemscore.Hbond>
0.8723

> <Gold.PLP.Chemscore.CHOScore>
0.0000

> <Gold.PLP.Chemscore.Metal>
0.0000

> <Gold.Chemscore.Hbonds>
donor molecule, donor type, donor heavy atom, donor atom, acceptor molecule, acceptor atom, score
      P1  H  2456  2461       L1    15  0.87

> <Gold.PLP.Chemscore.Internal.Correction>
0.4696

