#       Name:                EN300-97777_i001
#       Creating user name   fsindt
#       Creation time:       Mon Feb 27 18:48:56 2023


#       File generated by GOLD software.
#

@<TRIPOS>MOLECULE
EN300-97777_i001|acide_1|mol2|382|dock13
    29    28     1
SMALL
USER_CHARGES


@<TRIPOS>ATOM
      1 C1          -0.4191 -16.7534  11.6852 C.3            1 <1>                0.0000
      2 C2           0.2751 -15.6798  12.5257 C.3            1 <1>                0.0000
      3 C3          -0.0645 -15.8897  14.0027 C.3            1 <1>                0.0000
      4 C4           1.7894 -15.7799  12.3313 C.3            1 <1>                0.0000
      5 O5          -0.1809 -14.3667  12.1061 O.3            1 <1>                0.0000
      6 C6          -0.1015 -14.0830  10.7923 C.2            1 <1>                0.0000
      7 O7           0.5829 -14.7722  10.0623 O.2            1 <1>                0.0000
      8 N8          -0.7811 -13.0345  10.2870 N.am           1 <1>                0.0000
      9 C9          -1.6063 -12.2036  11.1673 C.3            1 <1>                0.0000
     10 C10         -1.0002 -10.8679  11.2912 C.1            1 <1>                0.0000
     11 C11         -0.5168  -9.8026  11.3900 C.1            1 <1>                0.0000
     12 C12         -0.6947 -12.7258   8.8575 C.3            1 <1>                0.0000
     13 C13          0.6548 -12.1278   8.5535 C.2            1 <1>                0.0000
     14 O14          1.3894 -12.6626   7.7407 O.co2          1 <1>                0.0000
     15 O15          1.0119 -11.1093   9.1206 O.co2          1 <1>               -1.0000
     16 H16         -1.4978 -16.6821  11.8237 H              1 <1>                0.0000
     17 H17         -0.1771 -16.6038  10.6330 H              1 <1>                0.0000
     18 H18         -0.0768 -17.7392  12.0002 H              1 <1>                0.0000
     19 H19          0.2778 -16.8755  14.3176 H              1 <1>                0.0000
     20 H20          0.4300 -15.1249  14.6015 H              1 <1>                0.0000
     21 H21         -1.1433 -15.8184  14.1412 H              1 <1>                0.0000
     22 H22          2.0313 -15.6304  11.2791 H              1 <1>                0.0000
     23 H23          2.2840 -15.0151  12.9301 H              1 <1>                0.0000
     24 H24          2.1317 -16.7657  12.6463 H              1 <1>                0.0000
     25 H25         -2.6072 -12.1108  10.7461 H              1 <1>                0.0000
     26 H26         -1.6679 -12.6673  12.1518 H              1 <1>                0.0000
     27 H27         -0.0845  -8.8498  11.4784 H              1 <1>                0.0000
     28 H28         -0.8252 -13.6408   8.2797 H              1 <1>                0.0000
     29 H29         -1.4758 -12.0136   8.5917 H              1 <1>                0.0000
@<TRIPOS>BOND
    1    1    2 1     
    2    1   16 1     
    3    1   17 1     
    4    1   18 1     
    5    2    3 1     
    6    2    4 1     
    7    2    5 1     
    8    3   19 1     
    9    3   20 1     
   10    3   21 1     
   11    4   22 1     
   12    4   23 1     
   13    4   24 1     
   14    5    6 1     
   15    6    7 2     
   16    6    8 am    
   17    8    9 1     
   18    8   12 1     
   19    9   10 1     
   20    9   25 1     
   21    9   26 1     
   22   10   11 3     
   23   11   27 1     
   24   12   13 1     
   25   12   28 1     
   26   12   29 1     
   27   13   14 ar    
   28   13   15 ar    
@<TRIPOS>SUBSTRUCTURE
      1 ****           1
@<TRIPOS>COMMENT
> <Gold.Version>
2022.2.0

> <Gold.Id.Protein>
3pbl|protein|mol2

> <Gold.Protein.RotatedTorsions>
[ 1303 1298 1297 1294 ] final   91.78 input  179.99 | X-H torsion
[ 2461 2456 2455 2452 ] final -153.68 input   30.03 | X-H torsion
[ 2515 2510 2509 2506 ] final   64.72 input  -89.99 | X-H torsion
[ 3721 3712 3711 3710 ] final -174.27 input -179.91 | X-H torsion
[ 3841 3832 3831 3830 ] final  -34.99 input -179.91 | X-H torsion
[ 3767 3762 3761 3758 ] final  -89.85 input  -89.99 | X-H torsion
[ 2472 2467 2466 2463 ] final   83.92 input  -89.97 | X-H torsion

> <Gold.Protein.ActiveResidues>
 VAL82   VAL86   LEU89   PHE106  VAL107  ASP110  VAL111  MET112  CYS114  THR115 
 CYS181  SER182  ILE183  PHE188  VAL189  ILE190  SER192  SER193  SER196  TRP342 
 PHE345  PHE346  HIS349  VAL350  TYR365  THR369  GLY372  TYR373 

> <Gold.Protein.RotatedAtoms>
    4.4373  -10.1047    4.8679 H   0  0  0  0  0  0  0  0  0  0  0  0  # atno 1303 bound_to 1298
    1.0340   -9.2888    8.3275 H   0  0  0  0  0  0  0  0  0  0  0  0  # atno 2461 bound_to 2456
   -5.0161   -4.8933    7.7493 H   0  0  0  0  0  0  0  0  0  0  0  0  # atno 2472 bound_to 2467
    2.1273   -7.4907    5.5176 H   0  0  0  0  0  0  0  0  0  0  0  0  # atno 2515 bound_to 2510
   -3.3317  -16.5777   13.6273 H   0  0  0  0  0  0  0  0  0  0  0  0  # atno 3721 bound_to 3712
   -5.2265  -21.9202   11.2103 H   0  0  0  0  0  0  0  0  0  0  0  0  # atno 3767 bound_to 3762
    1.5632  -20.0727    9.2953 H   0  0  0  0  0  0  0  0  0  0  0  0  # atno 3841 bound_to 3832
    3.3344   -9.4602    3.8508 LP  0  0  0  0  0  0  0  0  0  0  0  0  # atno 4297 bound_to 1298
    4.5903   -8.5562    4.3727 LP  0  0  0  0  0  0  0  0  0  0  0  0  # atno 4298 bound_to 1298
    2.1230   -8.2589    7.6787 LP  0  0  0  0  0  0  0  0  0  0  0  0  # atno 4299 bound_to 2456
    0.5807   -8.2607    7.1422 LP  0  0  0  0  0  0  0  0  0  0  0  0  # atno 4300 bound_to 2456
    2.8136   -8.4247    4.3677 LP  0  0  0  0  0  0  0  0  0  0  0  0  # atno 4301 bound_to 2510
    2.3559   -9.0842    5.7897 LP  0  0  0  0  0  0  0  0  0  0  0  0  # atno 4302 bound_to 2510
   -2.7668  -18.0424   13.2909 LP  0  0  0  0  0  0  0  0  0  0  0  0  # atno 4306 bound_to 3712
   -2.9143  -17.5447   14.8392 LP  0  0  0  0  0  0  0  0  0  0  0  0  # atno 4307 bound_to 3712
    2.6594  -19.8863    8.1378 LP  0  0  0  0  0  0  0  0  0  0  0  0  # atno 4314 bound_to 3832
    2.7642  -21.1320    9.1884 LP  0  0  0  0  0  0  0  0  0  0  0  0  # atno 4315 bound_to 3832
   -3.9198  -22.8960   11.2956 LP  0  0  0  0  0  0  0  0  0  0  0  0  # atno 4318 bound_to 3762
   -4.9813  -23.0585   10.0653 LP  0  0  0  0  0  0  0  0  0  0  0  0  # atno 4319 bound_to 3762
   -3.6350   -5.0494    8.6064 LP  0  0  0  0  0  0  0  0  0  0  0  0  # atno 4320 bound_to 2467
   -5.0659   -5.4508    9.2833 LP  0  0  0  0  0  0  0  0  0  0  0  0  # atno 4321 bound_to 2467

> <Gold.Score>
     Score     S(PLP)   S(hbond)     S(cho)   S(metal)  DE(clash)   DE(tors)     intcor
     46.32     -43.79       1.00       0.00       0.00       0.00       0.47       0.47

> <Gold.PLP.Fitness>
46.3191

> <Gold.PLP.PLP>
-43.7900

> <Gold.PLP.part.hbond>
-1.0000

> <Gold.PLP.part.metal>
0.0000

> <Gold.PLP.part.buried>
-5.7821

> <Gold.PLP.part.nonpolar>
-38.2079

> <Gold.PLP.part.repulsive>
0.1944

> <Gold.PLP.ligand.clash>
0.0000

> <Gold.PLP.ligand.torsion>
0.4703

> <Gold.PLP.Chemscore.Hbond>
1.0000

> <Gold.PLP.Chemscore.CHOScore>
0.0000

> <Gold.PLP.Chemscore.Metal>
0.0000

> <Gold.Chemscore.Hbonds>
donor molecule, donor type, donor heavy atom, donor atom, acceptor molecule, acceptor atom, score
      P1  H  2456  2461       L1    15  1.00

> <Gold.PLP.Chemscore.Internal.Correction>
0.4696

