#       Name:                EN300-97777_i001
#       Creating user name   fsindt
#       Creation time:       Mon Feb 27 18:48:52 2023


#       File generated by GOLD software.
#

@<TRIPOS>MOLECULE
EN300-97777_i001|acide_1|mol2|382|dock10
    29    28     1
SMALL
USER_CHARGES


@<TRIPOS>ATOM
      1 C1           0.1321 -23.5018  14.4443 C.3            1 <1>                0.0000
      2 C2          -0.4964 -22.4470  13.5314 C.3            1 <1>                0.0000
      3 C3          -1.0222 -23.1194  12.2616 C.3            1 <1>                0.0000
      4 C4          -1.6532 -21.7632  14.2629 C.3            1 <1>                0.0000
      5 O5           0.5041 -21.4566  13.1758 O.3            1 <1>                0.0000
      6 C6           0.8333 -20.5541  14.1192 C.2            1 <1>                0.0000
      7 O7           0.7474 -20.8462  15.2955 O.2            1 <1>                0.0000
      8 N8           1.2580 -19.3268  13.7587 N.am           1 <1>                0.0000
      9 C9           1.6162 -18.3449  14.7852 C.3            1 <1>                0.0000
     10 C10          1.4692 -16.9865  14.2373 C.1            1 <1>                0.0000
     11 C11          1.3521 -15.9033  13.8003 C.1            1 <1>                0.0000
     12 C12          1.3615 -18.9749  12.3404 C.3            1 <1>                0.0000
     13 C13          0.0098 -19.1129  11.6887 C.2            1 <1>                0.0000
     14 O14         -0.9768 -18.6375  12.2245 O.co2          1 <1>                0.0000
     15 O15         -0.0973 -19.7002  10.6255 O.co2          1 <1>               -1.0000
     16 H16          0.9562 -23.9888  13.9231 H              1 <1>                0.0000
     17 H17          0.5067 -23.0227  15.3489 H              1 <1>                0.0000
     18 H18         -0.6190 -24.2452  14.7113 H              1 <1>                0.0000
     19 H19         -1.7733 -23.8628  12.5287 H              1 <1>                0.0000
     20 H20         -1.4699 -22.3679  11.6113 H              1 <1>                0.0000
     21 H21         -0.1981 -23.6065  11.7405 H              1 <1>                0.0000
     22 H22         -1.2785 -21.2842  15.1676 H              1 <1>                0.0000
     23 H23         -2.1009 -21.0118  13.6126 H              1 <1>                0.0000
     24 H24         -2.4042 -22.5067  14.5299 H              1 <1>                0.0000
     25 H25          0.9580 -18.4626  15.6459 H              1 <1>                0.0000
     26 H26          2.6496 -18.5023  15.0937 H              1 <1>                0.0000
     27 H27          1.2473 -14.9343  13.4095 H              1 <1>                0.0000
     28 H28          1.7070 -17.9454  12.2458 H              1 <1>                0.0000
     29 H29          2.0707 -19.6425  11.8511 H              1 <1>                0.0000
@<TRIPOS>BOND
    1    1    2 1     
    2    1   16 1     
    3    1   17 1     
    4    1   18 1     
    5    2    3 1     
    6    2    4 1     
    7    2    5 1     
    8    3   19 1     
    9    3   20 1     
   10    3   21 1     
   11    4   22 1     
   12    4   23 1     
   13    4   24 1     
   14    5    6 1     
   15    6    7 2     
   16    6    8 am    
   17    8    9 1     
   18    8   12 1     
   19    9   10 1     
   20    9   25 1     
   21    9   26 1     
   22   10   11 3     
   23   11   27 1     
   24   12   13 1     
   25   12   28 1     
   26   12   29 1     
   27   13   14 ar    
   28   13   15 ar    
@<TRIPOS>SUBSTRUCTURE
      1 ****           1
@<TRIPOS>COMMENT
> <Gold.Version>
2022.2.0

> <Gold.Id.Protein>
3pbl|protein|mol2

> <Gold.Protein.RotatedTorsions>
[ 1303 1298 1297 1294 ] final  127.56 input  179.99 | X-H torsion
[ 2461 2456 2455 2452 ] final   90.41 input   30.03 | X-H torsion
[ 2515 2510 2509 2506 ] final  -81.33 input  -89.99 | X-H torsion
[ 3721 3712 3711 3710 ] final   64.13 input -179.91 | X-H torsion
[ 3841 3832 3831 3830 ] final  -20.44 input -179.91 | X-H torsion
[ 3767 3762 3761 3758 ] final -114.10 input  -89.99 | X-H torsion
[ 2472 2467 2466 2463 ] final   47.99 input  -89.97 | X-H torsion

> <Gold.Protein.ActiveResidues>
 VAL82   VAL86   LEU89   PHE106  VAL107  ASP110  VAL111  MET112  CYS114  THR115 
 CYS181  SER182  ILE183  PHE188  VAL189  ILE190  SER192  SER193  SER196  TRP342 
 PHE345  PHE346  HIS349  VAL350  TYR365  THR369  GLY372  TYR373 

> <Gold.Protein.RotatedAtoms>
    4.8014   -9.6617    4.9490 H   0  0  0  0  0  0  0  0  0  0  0  0  # atno 1303 bound_to 1298
    2.1397   -8.3020    7.7276 H   0  0  0  0  0  0  0  0  0  0  0  0  # atno 2461 bound_to 2456
   -4.4469   -4.8027    7.6716 H   0  0  0  0  0  0  0  0  0  0  0  0  # atno 2472 bound_to 2467
    2.8329   -8.8192    4.5241 H   0  0  0  0  0  0  0  0  0  0  0  0  # atno 2515 bound_to 2510
   -2.6138  -17.8761   13.3350 H   0  0  0  0  0  0  0  0  0  0  0  0  # atno 3721 bound_to 3712
   -4.9291  -21.9438   11.4709 H   0  0  0  0  0  0  0  0  0  0  0  0  # atno 3767 bound_to 3762
    1.6023  -20.2449    9.4252 H   0  0  0  0  0  0  0  0  0  0  0  0  # atno 3841 bound_to 3832
    3.4313   -9.9666    4.1146 LP  0  0  0  0  0  0  0  0  0  0  0  0  # atno 4297 bound_to 1298
    4.1293   -8.4929    4.0278 LP  0  0  0  0  0  0  0  0  0  0  0  0  # atno 4298 bound_to 1298
    0.6272   -8.2192    7.1169 LP  0  0  0  0  0  0  0  0  0  0  0  0  # atno 4299 bound_to 2456
    0.9711   -9.2869    8.3036 LP  0  0  0  0  0  0  0  0  0  0  0  0  # atno 4300 bound_to 2456
    2.1896   -8.7710    6.0240 LP  0  0  0  0  0  0  0  0  0  0  0  0  # atno 4301 bound_to 2510
    2.2741   -7.4087    5.1275 LP  0  0  0  0  0  0  0  0  0  0  0  0  # atno 4302 bound_to 2510
   -2.9505  -17.4792   14.8539 LP  0  0  0  0  0  0  0  0  0  0  0  0  # atno 4306 bound_to 3712
   -3.5595  -16.6089   13.6136 LP  0  0  0  0  0  0  0  0  0  0  0  0  # atno 4307 bound_to 3712
    2.4527  -19.7604    8.1531 LP  0  0  0  0  0  0  0  0  0  0  0  0  # atno 4314 bound_to 3832
    2.9257  -21.0590    9.0230 LP  0  0  0  0  0  0  0  0  0  0  0  0  # atno 4315 bound_to 3832
   -3.9312  -23.1419   10.9853 LP  0  0  0  0  0  0  0  0  0  0  0  0  # atno 4318 bound_to 3762
   -5.2672  -22.7890   10.1151 LP  0  0  0  0  0  0  0  0  0  0  0  0  # atno 4319 bound_to 3762
   -3.8301   -5.2540    9.1146 LP  0  0  0  0  0  0  0  0  0  0  0  0  # atno 4320 bound_to 2467
   -5.4399   -5.3368    8.8528 LP  0  0  0  0  0  0  0  0  0  0  0  0  # atno 4321 bound_to 2467

> <Gold.Score>
     Score     S(PLP)   S(hbond)     S(cho)   S(metal)  DE(clash)   DE(tors)     intcor
     37.93     -34.05       1.84       0.00       0.00       0.00       1.05       0.47

> <Gold.PLP.Fitness>
37.9339

> <Gold.PLP.PLP>
-34.0460

> <Gold.PLP.part.hbond>
-1.9111

> <Gold.PLP.part.metal>
0.0000

> <Gold.PLP.part.buried>
-4.8525

> <Gold.PLP.part.nonpolar>
-27.8355

> <Gold.PLP.part.repulsive>
0.1513

> <Gold.PLP.ligand.clash>
0.0000

> <Gold.PLP.ligand.torsion>
1.0452

> <Gold.PLP.Chemscore.Hbond>
1.8363

> <Gold.PLP.Chemscore.CHOScore>
0.0000

> <Gold.PLP.Chemscore.Metal>
0.0000

> <Gold.Chemscore.Hbonds>
donor molecule, donor type, donor heavy atom, donor atom, acceptor molecule, acceptor atom, score
      P1  H  3712  3721       L1    14  0.96
      P1  H  3832  3841       L1    15  0.88

> <Gold.PLP.Chemscore.Internal.Correction>
0.4696

