#       Name:                EN300-97777_i001
#       Creating user name   fsindt
#       Creation time:       Mon Feb 27 18:48:44 2023


#       File generated by GOLD software.
#

@<TRIPOS>MOLECULE
EN300-97777_i001|acide_1|mol2|382|dock4
    29    28     1
SMALL
USER_CHARGES


@<TRIPOS>ATOM
      1 C1          -1.8373 -11.1039  11.3497 C.3            1 <1>                0.0000
      2 C2          -2.5769 -10.8722  10.0306 C.3            1 <1>                0.0000
      3 C3          -4.0526 -11.2383  10.2021 C.3            1 <1>                0.0000
      4 C4          -2.4596  -9.3998   9.6318 C.3            1 <1>                0.0000
      5 O5          -1.9896 -11.7025   8.9942 O.3            1 <1>                0.0000
      6 C6          -0.6732 -11.5463   8.7585 C.2            1 <1>                0.0000
      7 O7          -0.0616 -10.6470   9.3004 O.2            1 <1>                0.0000
      8 N8          -0.0340 -12.3874   7.9216 N.am           1 <1>                0.0000
      9 C9          -0.7715 -13.4716   7.2684 C.3            1 <1>                0.0000
     10 C10         -0.0593 -14.7433   7.4746 C.1            1 <1>                0.0000
     11 C11          0.5086 -15.7574   7.6390 C.1            1 <1>                0.0000
     12 C12          1.3984 -12.2174   7.6652 C.3            1 <1>                0.0000
     13 C13          1.6017 -11.7328   6.2528 C.2            1 <1>                0.0000
     14 O14          2.5877 -11.0737   5.9705 O.co2          1 <1>                0.0000
     15 O15          0.7801 -11.9998   5.3925 O.co2          1 <1>               -1.0000
     16 H16         -1.9209 -12.1529  11.6338 H              1 <1>                0.0000
     17 H17         -0.7860 -10.8431  11.2275 H              1 <1>                0.0000
     18 H18         -2.2782 -10.4806  12.1278 H              1 <1>                0.0000
     19 H19         -4.4934 -10.6150  10.9801 H              1 <1>                0.0000
     20 H20         -4.5794 -11.0733   9.2622 H              1 <1>                0.0000
     21 H21         -4.1361 -12.2873  10.4862 H              1 <1>                0.0000
     22 H22         -1.4083  -9.1391   9.5097 H              1 <1>                0.0000
     23 H23         -2.9865  -9.2347   8.6920 H              1 <1>                0.0000
     24 H24         -2.9005  -8.7766  10.4098 H              1 <1>                0.0000
     25 H25         -1.7709 -13.5412   7.6975 H              1 <1>                0.0000
     26 H26         -0.8479 -13.2671   6.2005 H              1 <1>                0.0000
     27 H27          1.0166 -16.6646   7.7861 H              1 <1>                0.0000
     28 H28          1.8081 -11.4867   8.3626 H              1 <1>                0.0000
     29 H29          1.9072 -13.1720   7.7986 H              1 <1>                0.0000
@<TRIPOS>BOND
    1    1    2 1     
    2    1   16 1     
    3    1   17 1     
    4    1   18 1     
    5    2    3 1     
    6    2    4 1     
    7    2    5 1     
    8    3   19 1     
    9    3   20 1     
   10    3   21 1     
   11    4   22 1     
   12    4   23 1     
   13    4   24 1     
   14    5    6 1     
   15    6    7 2     
   16    6    8 am    
   17    8    9 1     
   18    8   12 1     
   19    9   10 1     
   20    9   25 1     
   21    9   26 1     
   22   10   11 3     
   23   11   27 1     
   24   12   13 1     
   25   12   28 1     
   26   12   29 1     
   27   13   14 ar    
   28   13   15 ar    
@<TRIPOS>SUBSTRUCTURE
      1 ****           1
@<TRIPOS>COMMENT
> <Gold.Version>
2022.2.0

> <Gold.Id.Protein>
3pbl|protein|mol2

> <Gold.Protein.RotatedTorsions>
[ 1303 1298 1297 1294 ] final   38.25 input  179.99 | X-H torsion
[ 2461 2456 2455 2452 ] final -154.75 input   30.03 | X-H torsion
[ 2515 2510 2509 2506 ] final  178.69 input  -89.99 | X-H torsion
[ 3721 3712 3711 3710 ] final    2.73 input -179.91 | X-H torsion
[ 3841 3832 3831 3830 ] final -140.83 input -179.91 | X-H torsion
[ 3767 3762 3761 3758 ] final  -32.62 input  -89.99 | X-H torsion
[ 2472 2467 2466 2463 ] final  143.03 input  -89.97 | X-H torsion

> <Gold.Protein.ActiveResidues>
 VAL82   VAL86   LEU89   PHE106  VAL107  ASP110  VAL111  MET112  CYS114  THR115 
 CYS181  SER182  ILE183  PHE188  VAL189  ILE190  SER192  SER193  SER196  TRP342 
 PHE345  PHE346  HIS349  VAL350  TYR365  THR369  GLY372  TYR373 

> <Gold.Protein.RotatedAtoms>
    3.7259  -10.2278    4.4213 H   0  0  0  0  0  0  0  0  0  0  0  0  # atno 1303 bound_to 1298
    1.0506   -9.2886    8.3331 H   0  0  0  0  0  0  0  0  0  0  0  0  # atno 2461 bound_to 2456
   -5.5091   -5.2081    8.4725 H   0  0  0  0  0  0  0  0  0  0  0  0  # atno 2472 bound_to 2467
    2.3149   -9.0231    5.8561 H   0  0  0  0  0  0  0  0  0  0  0  0  # atno 2515 bound_to 2510
   -2.4817  -17.9717   14.2043 H   0  0  0  0  0  0  0  0  0  0  0  0  # atno 3721 bound_to 3712
   -5.5044  -22.3223   10.4508 H   0  0  0  0  0  0  0  0  0  0  0  0  # atno 3767 bound_to 3762
    2.5078  -19.6865    8.3645 H   0  0  0  0  0  0  0  0  0  0  0  0  # atno 3841 bound_to 3832
    3.7243   -8.7061    3.8291 LP  0  0  0  0  0  0  0  0  0  0  0  0  # atno 4297 bound_to 1298
    4.9121   -9.1871    4.8412 LP  0  0  0  0  0  0  0  0  0  0  0  0  # atno 4298 bound_to 1298
    2.1180   -8.2479    7.6660 LP  0  0  0  0  0  0  0  0  0  0  0  0  # atno 4299 bound_to 2456
    0.5691   -8.2718    7.1492 LP  0  0  0  0  0  0  0  0  0  0  0  0  # atno 4300 bound_to 2456
    2.1565   -7.4550    5.4299 LP  0  0  0  0  0  0  0  0  0  0  0  0  # atno 4301 bound_to 2510
    2.8254   -8.5207    4.3889 LP  0  0  0  0  0  0  0  0  0  0  0  0  # atno 4302 bound_to 2510
   -3.4260  -16.7055   14.4918 LP  0  0  0  0  0  0  0  0  0  0  0  0  # atno 4306 bound_to 3712
   -3.2365  -17.2721   12.9721 LP  0  0  0  0  0  0  0  0  0  0  0  0  # atno 4307 bound_to 3712
    2.8920  -21.0798    9.0625 LP  0  0  0  0  0  0  0  0  0  0  0  0  # atno 4314 bound_to 3832
    1.4404  -20.3846    9.3389 LP  0  0  0  0  0  0  0  0  0  0  0  0  # atno 4315 bound_to 3832
   -4.4012  -22.2194   11.6504 LP  0  0  0  0  0  0  0  0  0  0  0  0  # atno 4318 bound_to 3762
   -4.2220  -23.3332   10.4697 LP  0  0  0  0  0  0  0  0  0  0  0  0  # atno 4319 bound_to 3762
   -4.0666   -4.8125    7.8173 LP  0  0  0  0  0  0  0  0  0  0  0  0  # atno 4320 bound_to 2467
   -4.1414   -5.3729    9.3493 LP  0  0  0  0  0  0  0  0  0  0  0  0  # atno 4321 bound_to 2467

> <Gold.Score>
     Score     S(PLP)   S(hbond)     S(cho)   S(metal)  DE(clash)   DE(tors)     intcor
     50.12     -43.93       2.63       0.00       0.00       0.98       0.60       0.47

> <Gold.PLP.Fitness>
50.1183

> <Gold.PLP.PLP>
-43.9293

> <Gold.PLP.part.hbond>
-3.0000

> <Gold.PLP.part.metal>
0.0000

> <Gold.PLP.part.buried>
3.0564

> <Gold.PLP.part.nonpolar>
-48.5012

> <Gold.PLP.part.repulsive>
2.6509

> <Gold.PLP.ligand.clash>
0.9757

> <Gold.PLP.ligand.torsion>
0.6004

> <Gold.PLP.Chemscore.Hbond>
2.6320

> <Gold.PLP.Chemscore.CHOScore>
0.0000

> <Gold.PLP.Chemscore.Metal>
0.0000

> <Gold.Chemscore.Hbonds>
donor molecule, donor type, donor heavy atom, donor atom, acceptor molecule, acceptor atom, score
      P1  H  1298  1303       L1    14  0.96
      P1  H  2456  2461       L1     7  1.00
      P1  H  2510  2515       L1    14  0.67

> <Gold.PLP.Chemscore.Internal.Correction>
0.4696

