#       Name:                EN300-97777_i001
#       Creating user name   fsindt
#       Creation time:       Mon Feb 27 18:48:53 2023


#       File generated by GOLD software.
#

@<TRIPOS>MOLECULE
EN300-97777_i001|acide_1|mol2|382|dock11
    29    28     1
SMALL
USER_CHARGES


@<TRIPOS>ATOM
      1 C1           1.6869 -15.5859  12.4890 C.3            1 <1>                0.0000
      2 C2           0.1652 -15.7274  12.4163 C.3            1 <1>                0.0000
      3 C3          -0.1929 -16.9741  11.6048 C.3            1 <1>                0.0000
      4 C4          -0.4029 -15.8591  13.8308 C.3            1 <1>                0.0000
      5 O5          -0.4000 -14.5537  11.7750 O.3            1 <1>                0.0000
      6 C6           0.0961 -14.2174  10.5693 C.2            1 <1>                0.0000
      7 O7           0.7884 -15.0054   9.9560 O.2            1 <1>                0.0000
      8 N8          -0.1753 -13.0067  10.0428 N.am           1 <1>                0.0000
      9 C9           0.3644 -12.6408   8.7310 C.3            1 <1>                0.0000
     10 C10         -0.0701 -13.6277   7.7290 C.1            1 <1>                0.0000
     11 C11         -0.4167 -14.4148   6.9299 C.1            1 <1>                0.0000
     12 C12         -1.0101 -12.0568  10.7825 C.3            1 <1>                0.0000
     13 C13         -0.5863 -10.6497  10.4484 C.2            1 <1>                0.0000
     14 O14         -0.0593  -9.9535  11.2993 O.co2          1 <1>                0.0000
     15 O15         -0.7705 -10.2075   9.3272 O.co2          1 <1>               -1.0000
     16 H16          2.0916 -15.4921  11.4813 H              1 <1>                0.0000
     17 H17          1.9420 -14.6978  13.0671 H              1 <1>                0.0000
     18 H18          2.1112 -16.4670  12.9703 H              1 <1>                0.0000
     19 H19          0.2314 -17.8552  12.0862 H              1 <1>                0.0000
     20 H20         -1.2770 -17.0749  11.5530 H              1 <1>                0.0000
     21 H21          0.2119 -16.8803  10.5970 H              1 <1>                0.0000
     22 H22         -0.1477 -14.9709  14.4089 H              1 <1>                0.0000
     23 H23         -1.4870 -15.9599  13.7790 H              1 <1>                0.0000
     24 H24          0.0214 -16.7402  14.3121 H              1 <1>                0.0000
     25 H25         -0.0012 -11.6531   8.4504 H              1 <1>                0.0000
     26 H26          1.4532 -12.6255   8.7775 H              1 <1>                0.0000
     27 H27         -0.7266 -15.1188   6.2151 H              1 <1>                0.0000
     28 H28         -2.0545 -12.1974  10.5040 H              1 <1>                0.0000
     29 H29         -0.8933 -12.2270  11.8527 H              1 <1>                0.0000
@<TRIPOS>BOND
    1    1    2 1     
    2    1   16 1     
    3    1   17 1     
    4    1   18 1     
    5    2    3 1     
    6    2    4 1     
    7    2    5 1     
    8    3   19 1     
    9    3   20 1     
   10    3   21 1     
   11    4   22 1     
   12    4   23 1     
   13    4   24 1     
   14    5    6 1     
   15    6    7 2     
   16    6    8 am    
   17    8    9 1     
   18    8   12 1     
   19    9   10 1     
   20    9   25 1     
   21    9   26 1     
   22   10   11 3     
   23   11   27 1     
   24   12   13 1     
   25   12   28 1     
   26   12   29 1     
   27   13   14 ar    
   28   13   15 ar    
@<TRIPOS>SUBSTRUCTURE
      1 ****           1
@<TRIPOS>COMMENT
> <Gold.Version>
2022.2.0

> <Gold.Id.Protein>
3pbl|protein|mol2

> <Gold.Protein.RotatedTorsions>
[ 1303 1298 1297 1294 ] final -176.97 input  179.99 | X-H torsion
[ 2461 2456 2455 2452 ] final -135.94 input   30.03 | X-H torsion
[ 2515 2510 2509 2506 ] final    3.79 input  -89.99 | X-H torsion
[ 3721 3712 3711 3710 ] final  -12.92 input -179.91 | X-H torsion
[ 3841 3832 3831 3830 ] final   24.23 input -179.91 | X-H torsion
[ 3767 3762 3761 3758 ] final -142.54 input  -89.99 | X-H torsion
[ 2472 2467 2466 2463 ] final   58.20 input  -89.97 | X-H torsion

> <Gold.Protein.ActiveResidues>
 VAL82   VAL86   LEU89   PHE106  VAL107  ASP110  VAL111  MET112  CYS114  THR115 
 CYS181  SER182  ILE183  PHE188  VAL189  ILE190  SER192  SER193  SER196  TRP342 
 PHE345  PHE346  HIS349  VAL350  TYR365  THR369  GLY372  TYR373 

> <Gold.Protein.RotatedAtoms>
    4.8384   -8.8360    4.6543 H   0  0  0  0  0  0  0  0  0  0  0  0  # atno 1303 bound_to 1298
    0.7726   -9.2564    8.2039 H   0  0  0  0  0  0  0  0  0  0  0  0  # atno 2461 bound_to 2456
   -4.6137   -4.8163    7.6587 H   0  0  0  0  0  0  0  0  0  0  0  0  # atno 2472 bound_to 2467
    2.5150   -7.5910    4.6499 H   0  0  0  0  0  0  0  0  0  0  0  0  # atno 2515 bound_to 2510
   -2.5244  -17.8652   14.4102 H   0  0  0  0  0  0  0  0  0  0  0  0  # atno 3721 bound_to 3712
   -4.5351  -22.1231   11.6361 H   0  0  0  0  0  0  0  0  0  0  0  0  # atno 3767 bound_to 3762
    1.9937  -20.7356    9.6222 H   0  0  0  0  0  0  0  0  0  0  0  0  # atno 3841 bound_to 3832
    4.0498  -10.2659    4.6606 LP  0  0  0  0  0  0  0  0  0  0  0  0  # atno 4297 bound_to 1298
    3.4737   -9.0196    3.7766 LP  0  0  0  0  0  0  0  0  0  0  0  0  # atno 4298 bound_to 1298
    2.1610   -8.4562    7.8891 LP  0  0  0  0  0  0  0  0  0  0  0  0  # atno 4299 bound_to 2456
    0.8040   -8.0958    7.0553 LP  0  0  0  0  0  0  0  0  0  0  0  0  # atno 4300 bound_to 2456
    2.7330   -9.1818    4.9458 LP  0  0  0  0  0  0  0  0  0  0  0  0  # atno 4301 bound_to 2510
    2.0487   -8.2266    6.0798 LP  0  0  0  0  0  0  0  0  0  0  0  0  # atno 4302 bound_to 2510
   -3.5053  -16.6022   14.2661 LP  0  0  0  0  0  0  0  0  0  0  0  0  # atno 4306 bound_to 3712
   -3.1079  -17.4984   12.9601 LP  0  0  0  0  0  0  0  0  0  0  0  0  # atno 4307 bound_to 3712
    1.8010  -19.6489    8.4568 LP  0  0  0  0  0  0  0  0  0  0  0  0  # atno 4314 bound_to 3832
    3.1253  -20.6037    8.4917 LP  0  0  0  0  0  0  0  0  0  0  0  0  # atno 4315 bound_to 3832
   -4.1180  -23.3118   10.5970 LP  0  0  0  0  0  0  0  0  0  0  0  0  # atno 4318 bound_to 3762
   -5.4743  -22.4400   10.3383 LP  0  0  0  0  0  0  0  0  0  0  0  0  # atno 4319 bound_to 3762
   -3.7403   -5.1973    8.9847 LP  0  0  0  0  0  0  0  0  0  0  0  0  # atno 4320 bound_to 2467
   -5.3630   -5.3798    8.9956 LP  0  0  0  0  0  0  0  0  0  0  0  0  # atno 4321 bound_to 2467

> <Gold.Score>
     Score     S(PLP)   S(hbond)     S(cho)   S(metal)  DE(clash)   DE(tors)     intcor
     43.59     -41.94       0.83       0.00       0.00       0.05       0.63       0.47

> <Gold.PLP.Fitness>
43.5936

> <Gold.PLP.PLP>
-41.9441

> <Gold.PLP.part.hbond>
-1.0000

> <Gold.PLP.part.metal>
0.0000

> <Gold.PLP.part.buried>
-5.0495

> <Gold.PLP.part.nonpolar>
-37.3048

> <Gold.PLP.part.repulsive>
0.2531

> <Gold.PLP.ligand.clash>
0.0464

> <Gold.PLP.ligand.torsion>
0.6317

> <Gold.PLP.Chemscore.Hbond>
0.8299

> <Gold.PLP.Chemscore.CHOScore>
0.0000

> <Gold.PLP.Chemscore.Metal>
0.0000

> <Gold.Chemscore.Hbonds>
donor molecule, donor type, donor heavy atom, donor atom, acceptor molecule, acceptor atom, score
      P1  H  2456  2461       L1    15  0.83

> <Gold.PLP.Chemscore.Internal.Correction>
0.4696

