#       Name:                EN300-97777_i001
#       Creating user name   fsindt
#       Creation time:       Mon Feb 27 18:48:51 2023


#       File generated by GOLD software.
#

@<TRIPOS>MOLECULE
EN300-97777_i001|acide_1|mol2|382|dock9
    29    28     1
SMALL
USER_CHARGES


@<TRIPOS>ATOM
      1 C1           1.7914 -15.6164  12.8041 C.3            1 <1>                0.0000
      2 C2           0.2980 -15.7847  12.5170 C.3            1 <1>                0.0000
      3 C3           0.0935 -16.9490  11.5455 C.3            1 <1>                0.0000
      4 C4          -0.4431 -16.0747  13.8237 C.3            1 <1>                0.0000
      5 O5          -0.2219 -14.5645  11.9263 O.3            1 <1>                0.0000
      6 C6           0.3046 -14.1837  10.7469 C.2            1 <1>                0.0000
      7 O7           1.2398 -14.7976  10.2727 O.2            1 <1>                0.0000
      8 N8          -0.2059 -13.1218  10.0925 N.am           1 <1>                0.0000
      9 C9          -1.3335 -12.3818  10.6644 C.3            1 <1>                0.0000
     10 C10         -0.9161 -11.0010  10.9578 C.1            1 <1>                0.0000
     11 C11         -0.5832  -9.8999  11.1917 C.1            1 <1>                0.0000
     12 C12          0.3669 -12.7075   8.8094 C.3            1 <1>                0.0000
     13 C13          0.3253 -13.8639   7.8440 C.2            1 <1>                0.0000
     14 O14         -0.6968 -14.1044   7.2245 O.co2          1 <1>                0.0000
     15 O15          1.3139 -14.5591   7.6826 O.co2          1 <1>               -1.0000
     16 H16          2.3193 -15.4098  11.8731 H              1 <1>                0.0000
     17 H17          1.9370 -14.7869  13.4961 H              1 <1>                0.0000
     18 H18          2.1817 -16.5324  13.2475 H              1 <1>                0.0000
     19 H19          0.4838 -17.8650  11.9890 H              1 <1>                0.0000
     20 H20         -0.9704 -17.0689  11.3410 H              1 <1>                0.0000
     21 H21          0.6215 -16.7424  10.6146 H              1 <1>                0.0000
     22 H22         -0.2973 -15.2452  14.5158 H              1 <1>                0.0000
     23 H23         -1.5069 -16.1946  13.6193 H              1 <1>                0.0000
     24 H24         -0.0527 -16.9907  14.2672 H              1 <1>                0.0000
     25 H25         -2.1581 -12.3684   9.9518 H              1 <1>                0.0000
     26 H26         -1.6569 -12.8670  11.5853 H              1 <1>                0.0000
     27 H27         -0.2854  -8.9149  11.4010 H              1 <1>                0.0000
     28 H28         -0.2105 -11.8759   8.4053 H              1 <1>                0.0000
     29 H29          1.4005 -12.3944   8.9570 H              1 <1>                0.0000
@<TRIPOS>BOND
    1    1    2 1     
    2    1   16 1     
    3    1   17 1     
    4    1   18 1     
    5    2    3 1     
    6    2    4 1     
    7    2    5 1     
    8    3   19 1     
    9    3   20 1     
   10    3   21 1     
   11    4   22 1     
   12    4   23 1     
   13    4   24 1     
   14    5    6 1     
   15    6    7 2     
   16    6    8 am    
   17    8    9 1     
   18    8   12 1     
   19    9   10 1     
   20    9   25 1     
   21    9   26 1     
   22   10   11 3     
   23   11   27 1     
   24   12   13 1     
   25   12   28 1     
   26   12   29 1     
   27   13   14 ar    
   28   13   15 ar    
@<TRIPOS>SUBSTRUCTURE
      1 ****           1
@<TRIPOS>COMMENT
> <Gold.Version>
2022.2.0

> <Gold.Id.Protein>
3pbl|protein|mol2

> <Gold.Protein.RotatedTorsions>
[ 1303 1298 1297 1294 ] final  -66.27 input  179.99 | X-H torsion
[ 2461 2456 2455 2452 ] final   12.86 input   30.03 | X-H torsion
[ 2515 2510 2509 2506 ] final  -92.56 input  -89.99 | X-H torsion
[ 3721 3712 3711 3710 ] final   24.06 input -179.91 | X-H torsion
[ 3841 3832 3831 3830 ] final   -9.54 input -179.91 | X-H torsion
[ 3767 3762 3761 3758 ] final -138.70 input  -89.99 | X-H torsion
[ 2472 2467 2466 2463 ] final  112.78 input  -89.97 | X-H torsion

> <Gold.Protein.ActiveResidues>
 VAL82   VAL86   LEU89   PHE106  VAL107  ASP110  VAL111  MET112  CYS114  THR115 
 CYS181  SER182  ILE183  PHE188  VAL189  ILE190  SER192  SER193  SER196  TRP342 
 PHE345  PHE346  HIS349  VAL350  TYR365  THR369  GLY372  TYR373 

> <Gold.Protein.RotatedAtoms>
    3.5558   -8.8907    3.7842 H   0  0  0  0  0  0  0  0  0  0  0  0  # atno 1303 bound_to 1298
    1.2447   -7.9357    7.0493 H   0  0  0  0  0  0  0  0  0  0  0  0  # atno 2461 bound_to 2456
   -5.3598   -5.0348    8.0370 H   0  0  0  0  0  0  0  0  0  0  0  0  # atno 2472 bound_to 2467
    2.8157   -8.9630    4.6383 H   0  0  0  0  0  0  0  0  0  0  0  0  # atno 2515 bound_to 2510
   -2.4740  -18.0338   13.8899 H   0  0  0  0  0  0  0  0  0  0  0  0  # atno 3721 bound_to 3712
   -4.5880  -22.0904   11.6243 H   0  0  0  0  0  0  0  0  0  0  0  0  # atno 3767 bound_to 3762
    1.6632  -20.3755    9.5045 H   0  0  0  0  0  0  0  0  0  0  0  0  # atno 3841 bound_to 3832
    4.8831   -8.9595    4.7327 LP  0  0  0  0  0  0  0  0  0  0  0  0  # atno 4297 bound_to 1298
    3.9235  -10.2713    4.5749 LP  0  0  0  0  0  0  0  0  0  0  0  0  # atno 4298 bound_to 1298
    0.4539   -9.0752    7.9116 LP  0  0  0  0  0  0  0  0  0  0  0  0  # atno 4299 bound_to 2456
    2.0392   -8.7970    8.1870 LP  0  0  0  0  0  0  0  0  0  0  0  0  # atno 4300 bound_to 2456
    2.1314   -8.6040    6.0765 LP  0  0  0  0  0  0  0  0  0  0  0  0  # atno 4301 bound_to 2510
    2.3494   -7.4318    4.9607 LP  0  0  0  0  0  0  0  0  0  0  0  0  # atno 4302 bound_to 2510
   -3.2790  -16.9255   14.7275 LP  0  0  0  0  0  0  0  0  0  0  0  0  # atno 4306 bound_to 3712
   -3.3923  -16.9804   13.0994 LP  0  0  0  0  0  0  0  0  0  0  0  0  # atno 4307 bound_to 3712
    2.2890  -19.6925    8.1937 LP  0  0  0  0  0  0  0  0  0  0  0  0  # atno 4314 bound_to 3832
    3.0192  -20.9760    8.8908 LP  0  0  0  0  0  0  0  0  0  0  0  0  # atno 4315 bound_to 3832
   -4.0829  -23.2980   10.6479 LP  0  0  0  0  0  0  0  0  0  0  0  0  # atno 4318 bound_to 3762
   -5.4564  -22.4864   10.2992 LP  0  0  0  0  0  0  0  0  0  0  0  0  # atno 4319 bound_to 3762
   -3.7377   -4.9040    8.1715 LP  0  0  0  0  0  0  0  0  0  0  0  0  # atno 4320 bound_to 2467
   -4.6196   -5.4548    9.4306 LP  0  0  0  0  0  0  0  0  0  0  0  0  # atno 4321 bound_to 2467

> <Gold.Score>
     Score     S(PLP)   S(hbond)     S(cho)   S(metal)  DE(clash)   DE(tors)     intcor
     39.91     -41.38       0.00       0.00       0.00       1.19       0.37       0.47

> <Gold.PLP.Fitness>
39.9116

> <Gold.PLP.PLP>
-41.3810

> <Gold.PLP.part.hbond>
0.0000

> <Gold.PLP.part.metal>
0.0000

> <Gold.PLP.part.buried>
-4.8614

> <Gold.PLP.part.nonpolar>
-38.0557

> <Gold.PLP.part.repulsive>
0.3276

> <Gold.PLP.ligand.clash>
1.1903

> <Gold.PLP.ligand.torsion>
0.3743

> <Gold.PLP.Chemscore.Hbond>
0.0000

> <Gold.PLP.Chemscore.CHOScore>
0.0000

> <Gold.PLP.Chemscore.Metal>
0.0000

> <Gold.PLP.Chemscore.Internal.Correction>
0.4696

