#       Name:                EN300-97777_i001
#       Creating user name   fsindt
#       Creation time:       Mon Feb 27 18:48:55 2023


#       File generated by GOLD software.
#

@<TRIPOS>MOLECULE
EN300-97777_i001|acide_1|mol2|382|dock12
    29    28     1
SMALL
USER_CHARGES


@<TRIPOS>ATOM
      1 C1           1.6922 -14.0488   8.5719 C.3            1 <1>                0.0000
      2 C2           0.5647 -13.7030   7.5971 C.3            1 <1>                0.0000
      3 C3           1.0458 -12.6267   6.6218 C.3            1 <1>                0.0000
      4 C4           0.1633 -14.9560   6.8163 C.3            1 <1>                0.0000
      5 O5          -0.5810 -13.2070   8.3385 O.3            1 <1>                0.0000
      6 C6          -0.4506 -12.0065   8.9342 C.2            1 <1>                0.0000
      7 O7           0.6547 -11.5359   9.1169 O.2            1 <1>                0.0000
      8 N8          -1.5459 -11.3270   9.3276 N.am           1 <1>                0.0000
      9 C9          -2.8784 -11.8945   9.1073 C.3            1 <1>                0.0000
     10 C10         -3.8739 -11.1175   9.8636 C.1            1 <1>                0.0000
     11 C11         -4.6679 -10.4977  10.4667 C.1            1 <1>                0.0000
     12 C12         -1.4040 -10.0208   9.9757 C.3            1 <1>                0.0000
     13 C13         -0.8040 -10.2026  11.3461 C.2            1 <1>                0.0000
     14 O14         -1.2455 -11.0559  12.0966 O.co2          1 <1>                0.0000
     15 O15          0.1229  -9.4961  11.7043 O.co2          1 <1>               -1.0000
     16 H16          1.9781 -13.1561   9.1280 H              1 <1>                0.0000
     17 H17          1.3494 -14.8155   9.2666 H              1 <1>                0.0000
     18 H18          2.5523 -14.4210   8.0153 H              1 <1>                0.0000
     19 H19          1.9058 -12.9990   6.0653 H              1 <1>                0.0000
     20 H20          0.2425 -12.3803   5.9275 H              1 <1>                0.0000
     21 H21          1.3318 -11.7340   7.1781 H              1 <1>                0.0000
     22 H22         -0.1794 -15.7228   7.5112 H              1 <1>                0.0000
     23 H23         -0.6399 -14.7097   6.1219 H              1 <1>                0.0000
     24 H24          1.0234 -15.3283   6.2598 H              1 <1>                0.0000
     25 H25         -3.1185 -11.8561   8.0448 H              1 <1>                0.0000
     26 H26         -2.8926 -12.9304   9.4458 H              1 <1>                0.0000
     27 H27         -5.3780  -9.9434  11.0063 H              1 <1>                0.0000
     28 H28         -0.7525  -9.3860   9.3751 H              1 <1>                0.0000
     29 H29         -2.3839  -9.5522  10.0673 H              1 <1>                0.0000
@<TRIPOS>BOND
    1    1    2 1     
    2    1   16 1     
    3    1   17 1     
    4    1   18 1     
    5    2    3 1     
    6    2    4 1     
    7    2    5 1     
    8    3   19 1     
    9    3   20 1     
   10    3   21 1     
   11    4   22 1     
   12    4   23 1     
   13    4   24 1     
   14    5    6 1     
   15    6    7 2     
   16    6    8 am    
   17    8    9 1     
   18    8   12 1     
   19    9   10 1     
   20    9   25 1     
   21    9   26 1     
   22   10   11 3     
   23   11   27 1     
   24   12   13 1     
   25   12   28 1     
   26   12   29 1     
   27   13   14 ar    
   28   13   15 ar    
@<TRIPOS>SUBSTRUCTURE
      1 ****           1
@<TRIPOS>COMMENT
> <Gold.Version>
2022.2.0

> <Gold.Id.Protein>
3pbl|protein|mol2

> <Gold.Protein.RotatedTorsions>
[ 1303 1298 1297 1294 ] final  111.46 input  179.99 | X-H torsion
[ 2461 2456 2455 2452 ] final  153.76 input   30.03 | X-H torsion
[ 2515 2510 2509 2506 ] final  -33.30 input  -89.99 | X-H torsion
[ 3721 3712 3711 3710 ] final   79.13 input -179.91 | X-H torsion
[ 3841 3832 3831 3830 ] final   -1.50 input -179.91 | X-H torsion
[ 3767 3762 3761 3758 ] final   84.16 input  -89.99 | X-H torsion
[ 2472 2467 2466 2463 ] final  169.13 input  -89.97 | X-H torsion

> <Gold.Protein.ActiveResidues>
 VAL82   VAL86   LEU89   PHE106  VAL107  ASP110  VAL111  MET112  CYS114  THR115 
 CYS181  SER182  ILE183  PHE188  VAL189  ILE190  SER192  SER193  SER196  TRP342 
 PHE345  PHE346  HIS349  VAL350  TYR365  THR369  GLY372  TYR373 

> <Gold.Protein.RotatedAtoms>
    4.6629   -9.8862    4.9400 H   0  0  0  0  0  0  0  0  0  0  0  0  # atno 1303 bound_to 1298
    1.8242   -9.0190    8.3338 H   0  0  0  0  0  0  0  0  0  0  0  0  # atno 2461 bound_to 2456
   -5.4325   -5.3427    8.8691 H   0  0  0  0  0  0  0  0  0  0  0  0  # atno 2472 bound_to 2467
    2.7364   -8.0736    4.3717 H   0  0  0  0  0  0  0  0  0  0  0  0  # atno 2515 bound_to 2510
   -2.7073  -17.7363   13.1838 H   0  0  0  0  0  0  0  0  0  0  0  0  # atno 3721 bound_to 3712
   -4.2580  -23.3351   10.4310 H   0  0  0  0  0  0  0  0  0  0  0  0  # atno 3767 bound_to 3762
    1.7240  -20.4695    9.5510 H   0  0  0  0  0  0  0  0  0  0  0  0  # atno 3841 bound_to 3832
    3.3507   -9.7562    3.9769 LP  0  0  0  0  0  0  0  0  0  0  0  0  # atno 4297 bound_to 1298
    4.3483   -8.4786    4.1745 LP  0  0  0  0  0  0  0  0  0  0  0  0  # atno 4298 bound_to 1298
    1.5714   -7.9225    7.1501 LP  0  0  0  0  0  0  0  0  0  0  0  0  # atno 4299 bound_to 2456
    0.3423   -8.8668    7.6644 LP  0  0  0  0  0  0  0  0  0  0  0  0  # atno 4300 bound_to 2456
    2.5098   -9.2315    5.5002 LP  0  0  0  0  0  0  0  0  0  0  0  0  # atno 4301 bound_to 2510
    2.0503   -7.6942    5.8038 LP  0  0  0  0  0  0  0  0  0  0  0  0  # atno 4302 bound_to 2510
   -2.8360  -17.6900   14.7835 LP  0  0  0  0  0  0  0  0  0  0  0  0  # atno 4306 bound_to 3712
   -3.5660  -16.5594   13.8586 LP  0  0  0  0  0  0  0  0  0  0  0  0  # atno 4307 bound_to 3712
    2.1672  -19.6586    8.2388 LP  0  0  0  0  0  0  0  0  0  0  0  0  # atno 4314 bound_to 3832
    3.0707  -20.9013    8.7920 LP  0  0  0  0  0  0  0  0  0  0  0  0  # atno 4315 bound_to 3832
   -5.5092  -22.2873   10.4901 LP  0  0  0  0  0  0  0  0  0  0  0  0  # atno 4318 bound_to 3762
   -4.3600  -22.2529   11.6498 LP  0  0  0  0  0  0  0  0  0  0  0  0  # atno 4319 bound_to 3762
   -4.4656   -4.8030    7.6691 LP  0  0  0  0  0  0  0  0  0  0  0  0  # atno 4320 bound_to 2467
   -3.8190   -5.2479    9.1010 LP  0  0  0  0  0  0  0  0  0  0  0  0  # atno 4321 bound_to 2467

> <Gold.Score>
     Score     S(PLP)   S(hbond)     S(cho)   S(metal)  DE(clash)   DE(tors)     intcor
     50.78     -53.25       0.00       0.00       0.00       1.63       0.65       0.47

> <Gold.PLP.Fitness>
50.7829

> <Gold.PLP.PLP>
-53.2485

> <Gold.PLP.part.hbond>
0.0000

> <Gold.PLP.part.metal>
0.0000

> <Gold.PLP.part.buried>
-5.4517

> <Gold.PLP.part.nonpolar>
-49.4561

> <Gold.PLP.part.repulsive>
0.1192

> <Gold.PLP.ligand.clash>
1.6325

> <Gold.PLP.ligand.torsion>
0.6514

> <Gold.PLP.Chemscore.Hbond>
0.0000

> <Gold.PLP.Chemscore.CHOScore>
0.0000

> <Gold.PLP.Chemscore.Metal>
0.0000

> <Gold.PLP.Chemscore.Internal.Correction>
0.4696

