#       Name:                EN300-97777_i001
#       Creating user name   fsindt
#       Creation time:       Mon Feb 27 18:49:04 2023


#       File generated by GOLD software.
#

@<TRIPOS>MOLECULE
EN300-97777_i001|acide_1|mol2|382|dock18
    29    28     1
SMALL
USER_CHARGES


@<TRIPOS>ATOM
      1 C1           0.4543 -15.7743  13.8970 C.3            1 <1>                0.0000
      2 C2           0.6832 -16.3884  12.5145 C.3            1 <1>                0.0000
      3 C3           1.7681 -17.4633  12.6072 C.3            1 <1>                0.0000
      4 C4          -0.6181 -17.0188  12.0146 C.3            1 <1>                0.0000
      5 O5           1.1060 -15.3527  11.5889 O.3            1 <1>                0.0000
      6 C6           0.1906 -14.4254  11.2494 C.2            1 <1>                0.0000
      7 O7          -0.7388 -14.1878  11.9952 O.2            1 <1>                0.0000
      8 N8           0.3054 -13.7608  10.0825 N.am           1 <1>                0.0000
      9 C9           1.4260 -14.0473   9.1835 C.3            1 <1>                0.0000
     10 C10          0.9114 -14.5885   7.9150 C.1            1 <1>                0.0000
     11 C11          0.5010 -15.0201   6.9033 C.1            1 <1>                0.0000
     12 C12         -0.6906 -12.7518   9.7132 C.3            1 <1>                0.0000
     13 C13         -0.0186 -11.4101   9.5742 C.2            1 <1>                0.0000
     14 O14         -0.3173 -10.4979  10.3258 O.co2          1 <1>                0.0000
     15 O15          0.8238 -11.2369   8.7099 O.co2          1 <1>               -1.0000
     16 H16          1.3814 -15.3251  14.2531 H              1 <1>                0.0000
     17 H17         -0.3186 -15.0085  13.8310 H              1 <1>                0.0000
     18 H18          0.1369 -16.5518  14.5920 H              1 <1>                0.0000
     19 H19          1.4507 -18.2408  13.3021 H              1 <1>                0.0000
     20 H20          1.9312 -17.9007  11.6222 H              1 <1>                0.0000
     21 H21          2.6952 -17.0141  12.9634 H              1 <1>                0.0000
     22 H22         -1.3910 -16.2530  11.9486 H              1 <1>                0.0000
     23 H23         -0.4550 -17.4563  11.0297 H              1 <1>                0.0000
     24 H24         -0.9354 -17.7963  12.7095 H              1 <1>                0.0000
     25 H25          1.9795 -13.1288   8.9887 H              1 <1>                0.0000
     26 H26          2.0872 -14.7783   9.6487 H              1 <1>                0.0000
     27 H27          0.1339 -15.4061   5.9984 H              1 <1>                0.0000
     28 H28         -1.1521 -13.0270   8.7648 H              1 <1>                0.0000
     29 H29         -1.4560 -12.6964  10.4872 H              1 <1>                0.0000
@<TRIPOS>BOND
    1    1    2 1     
    2    1   16 1     
    3    1   17 1     
    4    1   18 1     
    5    2    3 1     
    6    2    4 1     
    7    2    5 1     
    8    3   19 1     
    9    3   20 1     
   10    3   21 1     
   11    4   22 1     
   12    4   23 1     
   13    4   24 1     
   14    5    6 1     
   15    6    7 2     
   16    6    8 am    
   17    8    9 1     
   18    8   12 1     
   19    9   10 1     
   20    9   25 1     
   21    9   26 1     
   22   10   11 3     
   23   11   27 1     
   24   12   13 1     
   25   12   28 1     
   26   12   29 1     
   27   13   14 ar    
   28   13   15 ar    
@<TRIPOS>SUBSTRUCTURE
      1 ****           1
@<TRIPOS>COMMENT
> <Gold.Version>
2022.2.0

> <Gold.Id.Protein>
3pbl|protein|mol2

> <Gold.Protein.RotatedTorsions>
[ 1303 1298 1297 1294 ] final  -13.20 input  179.99 | X-H torsion
[ 2461 2456 2455 2452 ] final -162.52 input   30.03 | X-H torsion
[ 2515 2510 2509 2506 ] final  140.93 input  -89.99 | X-H torsion
[ 3721 3712 3711 3710 ] final  -21.41 input -179.91 | X-H torsion
[ 3841 3832 3831 3830 ] final   -3.58 input -179.91 | X-H torsion
[ 3767 3762 3761 3758 ] final   11.19 input  -89.99 | X-H torsion
[ 2472 2467 2466 2463 ] final  -11.00 input  -89.97 | X-H torsion

> <Gold.Protein.ActiveResidues>
 VAL82   VAL86   LEU89   PHE106  VAL107  ASP110  VAL111  MET112  CYS114  THR115 
 CYS181  SER182  ILE183  PHE188  VAL189  ILE190  SER192  SER193  SER196  TRP342 
 PHE345  PHE346  HIS349  VAL350  TYR365  THR369  GLY372  TYR373 

> <Gold.Protein.RotatedAtoms>
    3.3384   -9.6888    3.9429 H   0  0  0  0  0  0  0  0  0  0  0  0  # atno 1303 bound_to 1298
    1.1733   -9.2805    8.3678 H   0  0  0  0  0  0  0  0  0  0  0  0  # atno 2461 bound_to 2456
   -3.7111   -4.9212    8.2252 H   0  0  0  0  0  0  0  0  0  0  0  0  # atno 2472 bound_to 2467
    2.1031   -8.5019    6.0919 H   0  0  0  0  0  0  0  0  0  0  0  0  # atno 2515 bound_to 2510
   -2.5597  -17.7885   14.5069 H   0  0  0  0  0  0  0  0  0  0  0  0  # atno 3721 bound_to 3712
   -5.2113  -22.8517   10.0918 H   0  0  0  0  0  0  0  0  0  0  0  0  # atno 3767 bound_to 3762
    1.7070  -20.4455    9.5400 H   0  0  0  0  0  0  0  0  0  0  0  0  # atno 3841 bound_to 3832
    4.4093   -8.4877    4.2203 LP  0  0  0  0  0  0  0  0  0  0  0  0  # atno 4297 bound_to 1298
    4.6148   -9.9447    4.9285 LP  0  0  0  0  0  0  0  0  0  0  0  0  # atno 4298 bound_to 1298
    2.0724   -8.1718    7.5741 LP  0  0  0  0  0  0  0  0  0  0  0  0  # atno 4299 bound_to 2456
    0.4920   -8.3561    7.2065 LP  0  0  0  0  0  0  0  0  0  0  0  0  # atno 4300 bound_to 2456
    2.3948   -7.4612    4.8681 LP  0  0  0  0  0  0  0  0  0  0  0  0  # atno 4301 bound_to 2510
    2.7990   -9.0359    4.7148 LP  0  0  0  0  0  0  0  0  0  0  0  0  # atno 4302 bound_to 2510
   -3.5356  -16.5702   14.1313 LP  0  0  0  0  0  0  0  0  0  0  0  0  # atno 4306 bound_to 3712
   -3.0368  -17.6190   12.9833 LP  0  0  0  0  0  0  0  0  0  0  0  0  # atno 4307 bound_to 3712
    2.1987  -19.6660    8.2259 LP  0  0  0  0  0  0  0  0  0  0  0  0  # atno 4314 bound_to 3832
    3.0588  -20.9217    8.8176 LP  0  0  0  0  0  0  0  0  0  0  0  0  # atno 4315 bound_to 3832
   -4.9997  -21.9286   11.4221 LP  0  0  0  0  0  0  0  0  0  0  0  0  # atno 4318 bound_to 3762
   -3.9166  -23.0948   11.0569 LP  0  0  0  0  0  0  0  0  0  0  0  0  # atno 4319 bound_to 3762
   -4.6812   -5.4590    9.4236 LP  0  0  0  0  0  0  0  0  0  0  0  0  # atno 4320 bound_to 2467
   -5.3244   -5.0133    7.9903 LP  0  0  0  0  0  0  0  0  0  0  0  0  # atno 4321 bound_to 2467

> <Gold.Score>
     Score     S(PLP)   S(hbond)     S(cho)   S(metal)  DE(clash)   DE(tors)     intcor
     41.12     -38.56       1.00       0.00       0.00       0.03       0.43       0.47

> <Gold.PLP.Fitness>
41.1242

> <Gold.PLP.PLP>
-38.5574

> <Gold.PLP.part.hbond>
-1.0000

> <Gold.PLP.part.metal>
0.0000

> <Gold.PLP.part.buried>
-3.5794

> <Gold.PLP.part.nonpolar>
-34.7930

> <Gold.PLP.part.repulsive>
0.1805

> <Gold.PLP.ligand.clash>
0.0342

> <Gold.PLP.ligand.torsion>
0.4343

> <Gold.PLP.Chemscore.Hbond>
1.0000

> <Gold.PLP.Chemscore.CHOScore>
0.0000

> <Gold.PLP.Chemscore.Metal>
0.0000

> <Gold.Chemscore.Hbonds>
donor molecule, donor type, donor heavy atom, donor atom, acceptor molecule, acceptor atom, score
      P1  H  2456  2461       L1    15  1.00

> <Gold.PLP.Chemscore.Internal.Correction>
0.4696

