#       Name:                EN300-97777_i001
#       Creating user name   fsindt
#       Creation time:       Mon Feb 27 18:48:46 2023


#       File generated by GOLD software.
#

@<TRIPOS>MOLECULE
EN300-97777_i001|acide_1|mol2|382|dock6
    29    28     1
SMALL
USER_CHARGES


@<TRIPOS>ATOM
      1 C1           1.8484 -15.0011  11.6198 C.3            1 <1>                0.0000
      2 C2           0.4155 -15.3095  12.0585 C.3            1 <1>                0.0000
      3 C3          -0.0966 -16.5369  11.3018 C.3            1 <1>                0.0000
      4 C4           0.3917 -15.5909  13.5621 C.3            1 <1>                0.0000
      5 O5          -0.4361 -14.1705  11.7658 O.3            1 <1>                0.0000
      6 C6          -0.4268 -13.7094  10.5007 C.2            1 <1>                0.0000
      7 O7           0.0755 -14.3734   9.6158 O.2            1 <1>                0.0000
      8 N8          -0.9748 -12.5114  10.2161 N.am           1 <1>                0.0000
      9 C9          -1.5804 -11.7109  11.2832 C.3            1 <1>                0.0000
     10 C10         -2.7912 -11.0477  10.7722 C.1            1 <1>                0.0000
     11 C11         -3.7567 -10.5188  10.3646 C.1            1 <1>                0.0000
     12 C12         -0.9647 -12.0097   8.8398 C.3            1 <1>                0.0000
     13 C13          0.4585 -11.7905   8.3955 C.2            1 <1>                0.0000
     14 O14          0.9428 -12.4987   7.5293 O.co2          1 <1>                0.0000
     15 O15          1.1258 -10.9048   8.9023 O.co2          1 <1>               -1.0000
     16 H16          1.8653 -14.8007  10.5485 H              1 <1>                0.0000
     17 H17          2.2132 -14.1268  12.1589 H              1 <1>                0.0000
     18 H18          2.4877 -15.8562  11.8395 H              1 <1>                0.0000
     19 H19          0.5427 -17.3919  11.5215 H              1 <1>                0.0000
     20 H20         -1.1175 -16.7565  11.6143 H              1 <1>                0.0000
     21 H21         -0.0797 -16.3364  10.2305 H              1 <1>                0.0000
     22 H22          0.7566 -14.7165  14.1012 H              1 <1>                0.0000
     23 H23         -0.6291 -15.8107  13.8747 H              1 <1>                0.0000
     24 H24          1.0310 -16.4460  13.7818 H              1 <1>                0.0000
     25 H25         -1.8462 -12.3596  12.1177 H              1 <1>                0.0000
     26 H26         -0.8687 -10.9576  11.6208 H              1 <1>                0.0000
     27 H27         -4.6204 -10.0457  10.0001 H              1 <1>                0.0000
     28 H28         -1.4419 -12.7380   8.1840 H              1 <1>                0.0000
     29 H29         -1.5093 -11.0667   8.7927 H              1 <1>                0.0000
@<TRIPOS>BOND
    1    1    2 1     
    2    1   16 1     
    3    1   17 1     
    4    1   18 1     
    5    2    3 1     
    6    2    4 1     
    7    2    5 1     
    8    3   19 1     
    9    3   20 1     
   10    3   21 1     
   11    4   22 1     
   12    4   23 1     
   13    4   24 1     
   14    5    6 1     
   15    6    7 2     
   16    6    8 am    
   17    8    9 1     
   18    8   12 1     
   19    9   10 1     
   20    9   25 1     
   21    9   26 1     
   22   10   11 3     
   23   11   27 1     
   24   12   13 1     
   25   12   28 1     
   26   12   29 1     
   27   13   14 ar    
   28   13   15 ar    
@<TRIPOS>SUBSTRUCTURE
      1 ****           1
@<TRIPOS>COMMENT
> <Gold.Version>
2022.2.0

> <Gold.Id.Protein>
3pbl|protein|mol2

> <Gold.Protein.RotatedTorsions>
[ 1303 1298 1297 1294 ] final  168.92 input  179.99 | X-H torsion
[ 2461 2456 2455 2452 ] final -174.46 input   30.03 | X-H torsion
[ 2515 2510 2509 2506 ] final    4.71 input  -89.99 | X-H torsion
[ 3721 3712 3711 3710 ] final   49.16 input -179.91 | X-H torsion
[ 3841 3832 3831 3830 ] final  -86.94 input -179.91 | X-H torsion
[ 3767 3762 3761 3758 ] final  148.49 input  -89.99 | X-H torsion
[ 2472 2467 2466 2463 ] final -152.42 input  -89.97 | X-H torsion

> <Gold.Protein.ActiveResidues>
 VAL82   VAL86   LEU89   PHE106  VAL107  ASP110  VAL111  MET112  CYS114  THR115 
 CYS181  SER182  ILE183  PHE188  VAL189  ILE190  SER192  SER193  SER196  TRP342 
 PHE345  PHE346  HIS349  VAL350  TYR365  THR369  GLY372  TYR373 

> <Gold.Protein.RotatedAtoms>
    4.8978   -9.0277    4.7700 H   0  0  0  0  0  0  0  0  0  0  0  0  # atno 1303 bound_to 1298
    1.3638   -9.2438    8.3976 H   0  0  0  0  0  0  0  0  0  0  0  0  # atno 2461 bound_to 2456
   -5.0138   -5.4567    9.3132 H   0  0  0  0  0  0  0  0  0  0  0  0  # atno 2472 bound_to 2467
    2.5087   -7.5823    4.6605 H   0  0  0  0  0  0  0  0  0  0  0  0  # atno 2515 bound_to 2510
   -2.5402  -17.9751   13.5239 H   0  0  0  0  0  0  0  0  0  0  0  0  # atno 3721 bound_to 3712
   -3.9155  -22.9145   11.2759 H   0  0  0  0  0  0  0  0  0  0  0  0  # atno 3767 bound_to 3762
    1.8202  -19.6277    8.7377 H   0  0  0  0  0  0  0  0  0  0  0  0  # atno 3841 bound_to 3832
    3.8598  -10.2648    4.5281 LP  0  0  0  0  0  0  0  0  0  0  0  0  # atno 4297 bound_to 1298
    3.6043   -8.8290    3.7934 LP  0  0  0  0  0  0  0  0  0  0  0  0  # atno 4298 bound_to 1298
    1.9731   -8.0707    7.4384 LP  0  0  0  0  0  0  0  0  0  0  0  0  # atno 4299 bound_to 2456
    0.4009   -8.4939    7.3123 LP  0  0  0  0  0  0  0  0  0  0  0  0  # atno 4300 bound_to 2456
    2.7373   -9.1759    4.9326 LP  0  0  0  0  0  0  0  0  0  0  0  0  # atno 4301 bound_to 2510
    2.0507   -8.2413    6.0824 LP  0  0  0  0  0  0  0  0  0  0  0  0  # atno 4302 bound_to 2510
   -3.0740  -17.2627   14.8600 LP  0  0  0  0  0  0  0  0  0  0  0  0  # atno 4306 bound_to 3712
   -3.5209  -16.7110   13.3894 LP  0  0  0  0  0  0  0  0  0  0  0  0  # atno 4307 bound_to 3712
    3.1134  -20.5276    8.4309 LP  0  0  0  0  0  0  0  0  0  0  0  0  # atno 4314 bound_to 3832
    2.0133  -21.0047    9.5394 LP  0  0  0  0  0  0  0  0  0  0  0  0  # atno 4315 bound_to 3832
   -5.0028  -23.0422   10.0642 LP  0  0  0  0  0  0  0  0  0  0  0  0  # atno 4318 bound_to 3762
   -5.2088  -21.9185   11.2310 LP  0  0  0  0  0  0  0  0  0  0  0  0  # atno 4319 bound_to 3762
   -5.0681   -4.9079    7.7762 LP  0  0  0  0  0  0  0  0  0  0  0  0  # atno 4320 bound_to 2467
   -3.6351   -5.0290    8.5498 LP  0  0  0  0  0  0  0  0  0  0  0  0  # atno 4321 bound_to 2467

> <Gold.Score>
     Score     S(PLP)   S(hbond)     S(cho)   S(metal)  DE(clash)   DE(tors)     intcor
     46.94     -44.74       1.00       0.00       0.00       0.13       0.57       0.47

> <Gold.PLP.Fitness>
46.9417

> <Gold.PLP.PLP>
-44.7438

> <Gold.PLP.part.hbond>
-1.0000

> <Gold.PLP.part.metal>
0.0000

> <Gold.PLP.part.buried>
-6.1012

> <Gold.PLP.part.nonpolar>
-39.0094

> <Gold.PLP.part.repulsive>
0.1312

> <Gold.PLP.ligand.clash>
0.1284

> <Gold.PLP.ligand.torsion>
0.5716

> <Gold.PLP.Chemscore.Hbond>
1.0000

> <Gold.PLP.Chemscore.CHOScore>
0.0000

> <Gold.PLP.Chemscore.Metal>
0.0000

> <Gold.Chemscore.Hbonds>
donor molecule, donor type, donor heavy atom, donor atom, acceptor molecule, acceptor atom, score
      P1  H  2456  2461       L1    15  1.00

> <Gold.PLP.Chemscore.Internal.Correction>
0.4696

