#       Name:                EN300-97777_i001
#       Creating user name   fsindt
#       Creation time:       Mon Feb 27 18:49:06 2023


#       File generated by GOLD software.
#

@<TRIPOS>MOLECULE
EN300-97777_i001|acide_1|mol2|382|dock19
    29    28     1
SMALL
USER_CHARGES


@<TRIPOS>ATOM
      1 C1           0.0416 -20.7360  14.9060 C.3            1 <1>                0.0000
      2 C2           0.1840 -20.5981  13.3889 C.3            1 <1>                0.0000
      3 C3           1.6587 -20.7254  13.0013 C.3            1 <1>                0.0000
      4 C4          -0.6217 -21.7004  12.6986 C.3            1 <1>                0.0000
      5 O5          -0.3156 -19.3001  12.9719 O.3            1 <1>                0.0000
      6 C6          -0.1370 -18.9623  11.6808 C.2            1 <1>                0.0000
      7 O7           0.1824 -19.8090  10.8700 O.2            1 <1>                0.0000
      8 N8          -0.3127 -17.6851  11.2879 N.am           1 <1>                0.0000
      9 C9          -0.1185 -17.3176   9.8831 C.3            1 <1>                0.0000
     10 C10         -1.0017 -18.1350   9.0354 C.1            1 <1>                0.0000
     11 C11         -1.7062 -18.7868   8.3594 C.1            1 <1>                0.0000
     12 C12         -0.6979 -16.6643  12.2656 C.3            1 <1>                0.0000
     13 C13          0.4114 -16.4870  13.2702 C.2            1 <1>                0.0000
     14 O14          0.3050 -15.6556  14.1555 O.co2          1 <1>                0.0000
     15 O15          1.4152 -17.1751  13.1975 O.co2          1 <1>               -1.0000
     16 H16          0.6157 -19.9507  15.3977 H              1 <1>                0.0000
     17 H17         -1.0089 -20.6453  15.1820 H              1 <1>                0.0000
     18 H18          0.4168 -21.7104  15.2190 H              1 <1>                0.0000
     19 H19          2.0337 -21.6998  13.3144 H              1 <1>                0.0000
     20 H20          1.7601 -20.6270  11.9205 H              1 <1>                0.0000
     21 H21          2.2327 -19.9400  13.4932 H              1 <1>                0.0000
     22 H22         -1.6723 -21.6096  12.9747 H              1 <1>                0.0000
     23 H23         -0.5203 -21.6021  11.6178 H              1 <1>                0.0000
     24 H24         -0.2466 -22.6748  13.0116 H              1 <1>                0.0000
     25 H25         -0.3582 -16.2631   9.7470 H              1 <1>                0.0000
     26 H26          0.9198 -17.4935   9.6018 H              1 <1>                0.0000
     27 H27         -2.3362 -19.3699   7.7548 H              1 <1>                0.0000
     28 H28         -0.8780 -15.7195  11.7527 H              1 <1>                0.0000
     29 H29         -1.6067 -16.9778  12.7794 H              1 <1>                0.0000
@<TRIPOS>BOND
    1    1    2 1     
    2    1   16 1     
    3    1   17 1     
    4    1   18 1     
    5    2    3 1     
    6    2    4 1     
    7    2    5 1     
    8    3   19 1     
    9    3   20 1     
   10    3   21 1     
   11    4   22 1     
   12    4   23 1     
   13    4   24 1     
   14    5    6 1     
   15    6    7 2     
   16    6    8 am    
   17    8    9 1     
   18    8   12 1     
   19    9   10 1     
   20    9   25 1     
   21    9   26 1     
   22   10   11 3     
   23   11   27 1     
   24   12   13 1     
   25   12   28 1     
   26   12   29 1     
   27   13   14 ar    
   28   13   15 ar    
@<TRIPOS>SUBSTRUCTURE
      1 ****           1
@<TRIPOS>COMMENT
> <Gold.Version>
2022.2.0

> <Gold.Id.Protein>
3pbl|protein|mol2

> <Gold.Protein.RotatedTorsions>
[ 1303 1298 1297 1294 ] final -143.21 input  179.99 | X-H torsion
[ 2461 2456 2455 2452 ] final -166.08 input   30.03 | X-H torsion
[ 2515 2510 2509 2506 ] final  -42.93 input  -89.99 | X-H torsion
[ 3721 3712 3711 3710 ] final   -2.78 input -179.91 | X-H torsion
[ 3841 3832 3831 3830 ] final  -15.43 input -179.91 | X-H torsion
[ 3767 3762 3761 3758 ] final   99.52 input  -89.99 | X-H torsion
[ 2472 2467 2466 2463 ] final  -16.83 input  -89.97 | X-H torsion

> <Gold.Protein.ActiveResidues>
 VAL82   VAL86   LEU89   PHE106  VAL107  ASP110  VAL111  MET112  CYS114  THR115 
 CYS181  SER182  ILE183  PHE188  VAL189  ILE190  SER192  SER193  SER196  TRP342 
 PHE345  PHE346  HIS349  VAL350  TYR365  THR369  GLY372  TYR373 

> <Gold.Protein.RotatedAtoms>
    4.5325   -8.5269    4.3218 H   0  0  0  0  0  0  0  0  0  0  0  0  # atno 1303 bound_to 1298
    1.2301   -9.2726    8.3797 H   0  0  0  0  0  0  0  0  0  0  0  0  # atno 2461 bound_to 2456
   -3.6779   -4.9484    8.3108 H   0  0  0  0  0  0  0  0  0  0  0  0  # atno 2472 bound_to 2467
    2.7766   -8.2257    4.3544 H   0  0  0  0  0  0  0  0  0  0  0  0  # atno 2515 bound_to 2510
   -2.4933  -17.9397   14.2803 H   0  0  0  0  0  0  0  0  0  0  0  0  # atno 3721 bound_to 3712
   -4.0984  -23.3045   10.6236 H   0  0  0  0  0  0  0  0  0  0  0  0  # atno 3767 bound_to 3762
    1.6270  -20.3050    9.4638 H   0  0  0  0  0  0  0  0  0  0  0  0  # atno 3841 bound_to 3832
    4.4997  -10.0567    4.8920 LP  0  0  0  0  0  0  0  0  0  0  0  0  # atno 4297 bound_to 1298
    3.3297   -9.5381    3.8777 LP  0  0  0  0  0  0  0  0  0  0  0  0  # atno 4298 bound_to 1298
    2.0464   -8.1395    7.5327 LP  0  0  0  0  0  0  0  0  0  0  0  0  # atno 4299 bound_to 2456
    0.4613   -8.3963    7.2359 LP  0  0  0  0  0  0  0  0  0  0  0  0  # atno 4300 bound_to 2456
    2.4424   -9.1822    5.6347 LP  0  0  0  0  0  0  0  0  0  0  0  0  # atno 4301 bound_to 2510
    2.0776   -7.5913    5.6866 LP  0  0  0  0  0  0  0  0  0  0  0  0  # atno 4302 bound_to 2510
   -3.4572  -16.6629   14.4164 LP  0  0  0  0  0  0  0  0  0  0  0  0  # atno 4306 bound_to 3712
   -3.1920  -17.3517   12.9598 LP  0  0  0  0  0  0  0  0  0  0  0  0  # atno 4307 bound_to 3712
    2.3781  -19.7262    8.1688 LP  0  0  0  0  0  0  0  0  0  0  0  0  # atno 4314 bound_to 3832
    2.9719  -21.0237    8.9628 LP  0  0  0  0  0  0  0  0  0  0  0  0  # atno 4315 bound_to 3832
   -5.4651  -22.4649   10.3170 LP  0  0  0  0  0  0  0  0  0  0  0  0  # atno 4318 bound_to 3762
   -4.5637  -22.1059   11.6305 LP  0  0  0  0  0  0  0  0  0  0  0  0  # atno 4319 bound_to 3762
   -4.7751   -5.4628    9.4053 LP  0  0  0  0  0  0  0  0  0  0  0  0  # atno 4320 bound_to 2467
   -5.2637   -4.9823    7.9230 LP  0  0  0  0  0  0  0  0  0  0  0  0  # atno 4321 bound_to 2467

> <Gold.Score>
     Score     S(PLP)   S(hbond)     S(cho)   S(metal)  DE(clash)   DE(tors)     intcor
     38.99     -33.04       2.00       0.00       0.00       0.01       0.24       0.44

> <Gold.PLP.Fitness>
38.9949

> <Gold.PLP.PLP>
-33.0413

> <Gold.PLP.part.hbond>
-2.0000

> <Gold.PLP.part.metal>
0.0000

> <Gold.PLP.part.buried>
-1.4011

> <Gold.PLP.part.nonpolar>
-31.0931

> <Gold.PLP.part.repulsive>
0.2156

> <Gold.PLP.ligand.clash>
0.0051

> <Gold.PLP.ligand.torsion>
0.2396

> <Gold.PLP.Chemscore.Hbond>
2.0000

> <Gold.PLP.Chemscore.CHOScore>
0.0000

> <Gold.PLP.Chemscore.Metal>
0.0000

> <Gold.Chemscore.Hbonds>
donor molecule, donor type, donor heavy atom, donor atom, acceptor molecule, acceptor atom, score
      P1  H  2305  2313       L1    14  1.00
      P1  H  3832  3841       L1     7  1.00

> <Gold.PLP.Chemscore.Internal.Correction>
0.4378

