#       Name:                EN300-97777_i001
#       Creating user name   fsindt
#       Creation time:       Mon Feb 27 18:48:40 2023


#       File generated by GOLD software.
#

@<TRIPOS>MOLECULE
EN300-97777_i001|acide_1|mol2|382|dock1
    29    28     1
SMALL
USER_CHARGES


@<TRIPOS>ATOM
      1 C1          -0.3827 -16.9519  11.7893 C.3            1 <1>                0.0000
      2 C2           0.2837 -15.9087  12.6885 C.3            1 <1>                0.0000
      3 C3          -0.1588 -16.1263  14.1369 C.3            1 <1>                0.0000
      4 C4           1.8041 -16.0495  12.5930 C.3            1 <1>                0.0000
      5 O5          -0.1070 -14.5781  12.2579 O.3            1 <1>                0.0000
      6 C6           0.0739 -14.2787  10.9577 C.2            1 <1>                0.0000
      7 O7           0.7831 -14.9817  10.2654 O.2            1 <1>                0.0000
      8 N8          -0.5316 -13.1992  10.4242 N.am           1 <1>                0.0000
      9 C9          -1.3867 -12.3518  11.2590 C.3            1 <1>                0.0000
     10 C10         -2.3638 -11.6521  10.4090 C.1            1 <1>                0.0000
     11 C11         -3.1431 -11.0941   9.7311 C.1            1 <1>                0.0000
     12 C12         -0.3348 -12.8734   9.0095 C.3            1 <1>                0.0000
     13 C13          0.2693 -11.4979   8.8903 C.2            1 <1>                0.0000
     14 O14          0.5313 -11.0403   7.7910 O.co2          1 <1>                0.0000
     15 O15          0.4959 -10.8426   9.8932 O.co2          1 <1>               -1.0000
     16 H16         -1.4659 -16.8515  11.8574 H              1 <1>                0.0000
     17 H17         -0.0675 -16.7968  10.7575 H              1 <1>                0.0000
     18 H18         -0.0895 -17.9507  12.1126 H              1 <1>                0.0000
     19 H19          0.1345 -17.1251  14.4601 H              1 <1>                0.0000
     20 H20          0.3159 -15.3831  14.7774 H              1 <1>                0.0000
     21 H21         -1.2421 -16.0260  14.2049 H              1 <1>                0.0000
     22 H22          2.1193 -15.8945  11.5611 H              1 <1>                0.0000
     23 H23          2.2789 -15.3064  13.2336 H              1 <1>                0.0000
     24 H24          2.0974 -17.0484  12.9163 H              1 <1>                0.0000
     25 H25         -1.9139 -12.9707  11.9848 H              1 <1>                0.0000
     26 H26         -0.7720 -11.6203  11.7836 H              1 <1>                0.0000
     27 H27         -3.8402 -10.5950   9.1248 H              1 <1>                0.0000
     28 H28          0.3355 -13.6049   8.5580 H              1 <1>                0.0000
     29 H29         -1.2953 -12.8943   8.4947 H              1 <1>                0.0000
@<TRIPOS>BOND
    1    1    2 1     
    2    1   16 1     
    3    1   17 1     
    4    1   18 1     
    5    2    3 1     
    6    2    4 1     
    7    2    5 1     
    8    3   19 1     
    9    3   20 1     
   10    3   21 1     
   11    4   22 1     
   12    4   23 1     
   13    4   24 1     
   14    5    6 1     
   15    6    7 2     
   16    6    8 am    
   17    8    9 1     
   18    8   12 1     
   19    9   10 1     
   20    9   25 1     
   21    9   26 1     
   22   10   11 3     
   23   11   27 1     
   24   12   13 1     
   25   12   28 1     
   26   12   29 1     
   27   13   14 ar    
   28   13   15 ar    
@<TRIPOS>SUBSTRUCTURE
      1 ****           1
@<TRIPOS>COMMENT
> <Gold.Version>
2022.2.0

> <Gold.Id.Protein>
3pbl|protein|mol2

> <Gold.Protein.RotatedTorsions>
[ 1303 1298 1297 1294 ] final  161.45 input  179.99 | X-H torsion
[ 2461 2456 2455 2452 ] final -138.96 input   30.03 | X-H torsion
[ 2515 2510 2509 2506 ] final  -83.61 input  -89.99 | X-H torsion
[ 3721 3712 3711 3710 ] final  -57.33 input -179.91 | X-H torsion
[ 3841 3832 3831 3830 ] final    5.67 input -179.91 | X-H torsion
[ 3767 3762 3761 3758 ] final  121.62 input  -89.99 | X-H torsion
[ 2472 2467 2466 2463 ] final   83.45 input  -89.97 | X-H torsion

> <Gold.Protein.ActiveResidues>
 VAL82   VAL86   LEU89   PHE106  VAL107  ASP110  VAL111  MET112  CYS114  THR115 
 CYS181  SER182  ILE183  PHE188  VAL189  ILE190  SER192  SER193  SER196  TRP342 
 PHE345  PHE346  HIS349  VAL350  TYR365  THR369  GLY372  TYR373 

> <Gold.Protein.RotatedAtoms>
    4.9104   -9.1384    4.8217 H   0  0  0  0  0  0  0  0  0  0  0  0  # atno 1303 bound_to 1298
    0.8146   -9.2665    8.2286 H   0  0  0  0  0  0  0  0  0  0  0  0  # atno 2461 bound_to 2456
   -5.0093   -4.8914    7.7461 H   0  0  0  0  0  0  0  0  0  0  0  0  # atno 2472 bound_to 2467
    2.8306   -8.8501    4.5452 H   0  0  0  0  0  0  0  0  0  0  0  0  # atno 2515 bound_to 2510
   -2.7805  -17.3659   14.7477 H   0  0  0  0  0  0  0  0  0  0  0  0  # atno 3721 bound_to 3712
   -3.9474  -23.1765   10.9261 H   0  0  0  0  0  0  0  0  0  0  0  0  # atno 3767 bound_to 3762
    1.7887  -20.5502    9.5832 H   0  0  0  0  0  0  0  0  0  0  0  0  # atno 3841 bound_to 3832
    3.7649  -10.2423    4.4534 LP  0  0  0  0  0  0  0  0  0  0  0  0  # atno 4297 bound_to 1298
    3.6866   -8.7408    3.8163 LP  0  0  0  0  0  0  0  0  0  0  0  0  # atno 4298 bound_to 1298
    2.1607   -8.4210    7.8538 LP  0  0  0  0  0  0  0  0  0  0  0  0  # atno 4299 bound_to 2456
    0.7623   -8.1208    7.0658 LP  0  0  0  0  0  0  0  0  0  0  0  0  # atno 4300 bound_to 2456
    2.1769   -8.7383    6.0372 LP  0  0  0  0  0  0  0  0  0  0  0  0  # atno 4301 bound_to 2510
    2.2889   -7.4106    5.0931 LP  0  0  0  0  0  0  0  0  0  0  0  0  # atno 4302 bound_to 2510
   -3.5514  -16.6338   13.5445 LP  0  0  0  0  0  0  0  0  0  0  0  0  # atno 4306 bound_to 3712
   -2.7662  -18.0432   13.2921 LP  0  0  0  0  0  0  0  0  0  0  0  0  # atno 4307 bound_to 3712
    2.0600  -19.6405    8.2890 LP  0  0  0  0  0  0  0  0  0  0  0  0  # atno 4314 bound_to 3832
    3.1032  -20.8261    8.7046 LP  0  0  0  0  0  0  0  0  0  0  0  0  # atno 4315 bound_to 3832
   -5.3085  -22.7371   10.1380 LP  0  0  0  0  0  0  0  0  0  0  0  0  # atno 4318 bound_to 3762
   -4.8712  -21.9616   11.5070 LP  0  0  0  0  0  0  0  0  0  0  0  0  # atno 4319 bound_to 3762
   -3.6353   -5.0521    8.6137 LP  0  0  0  0  0  0  0  0  0  0  0  0  # atno 4320 bound_to 2467
   -5.0724   -5.4500    9.2792 LP  0  0  0  0  0  0  0  0  0  0  0  0  # atno 4321 bound_to 2467

> <Gold.Score>
     Score     S(PLP)   S(hbond)     S(cho)   S(metal)  DE(clash)   DE(tors)     intcor
     47.06     -44.85       0.94       0.00       0.00       0.00       0.58       0.53

> <Gold.PLP.Fitness>
47.0585

> <Gold.PLP.PLP>
-44.8477

> <Gold.PLP.part.hbond>
-1.6154

> <Gold.PLP.part.metal>
0.0000

> <Gold.PLP.part.buried>
-5.6582

> <Gold.PLP.part.nonpolar>
-39.3751

> <Gold.PLP.part.repulsive>
0.1481

> <Gold.PLP.ligand.clash>
0.0000

> <Gold.PLP.ligand.torsion>
0.5774

> <Gold.PLP.Chemscore.Hbond>
0.9440

> <Gold.PLP.Chemscore.CHOScore>
0.0000

> <Gold.PLP.Chemscore.Metal>
0.0000

> <Gold.Chemscore.Hbonds>
donor molecule, donor type, donor heavy atom, donor atom, acceptor molecule, acceptor atom, score
      P1  H  2456  2461       L1    14  0.94

> <Gold.PLP.Chemscore.Internal.Correction>
0.5336

