#       Name:                EN300-97777_i001
#       Creating user name   fsindt
#       Creation time:       Mon Feb 27 18:48:45 2023


#       File generated by GOLD software.
#

@<TRIPOS>MOLECULE
EN300-97777_i001|acide_1|mol2|382|dock5
    29    28     1
SMALL
USER_CHARGES


@<TRIPOS>ATOM
      1 C1           1.9018 -15.6251  12.4315 C.3            1 <1>                0.0000
      2 C2           0.3735 -15.6210  12.3589 C.3            1 <1>                0.0000
      3 C3          -0.1034 -16.8483  11.5796 C.3            1 <1>                0.0000
      4 C4          -0.2045 -15.6598  13.7750 C.3            1 <1>                0.0000
      5 O5          -0.0759 -14.4156  11.6856 O.3            1 <1>                0.0000
      6 C6           0.4233 -14.1791  10.4577 C.2            1 <1>                0.0000
      7 O7           1.0869 -15.0290   9.8977 O.2            1 <1>                0.0000
      8 N8           0.1867 -12.9997   9.8498 N.am           1 <1>                0.0000
      9 C9           0.7297 -12.7424   8.5137 C.3            1 <1>                0.0000
     10 C10          0.2607 -13.7834   7.5846 C.1            1 <1>                0.0000
     11 C11         -0.1132 -14.6136   6.8436 C.1            1 <1>                0.0000
     12 C12         -0.6136 -11.9751  10.5251 C.3            1 <1>                0.0000
     13 C13         -1.4241 -11.2177   9.5050 C.2            1 <1>                0.0000
     14 O14         -0.8687 -10.4704   8.7179 O.co2          1 <1>                0.0000
     15 O15         -2.6353 -11.3521   9.4670 O.co2          1 <1>               -1.0000
     16 H16          2.3135 -15.5975  11.4227 H              1 <1>                0.0000
     17 H17          2.2415 -14.7508  12.9867 H              1 <1>                0.0000
     18 H18          2.2391 -16.5301  12.9369 H              1 <1>                0.0000
     19 H19          0.2339 -17.7532  12.0851 H              1 <1>                0.0000
     20 H20         -1.1922 -16.8454  11.5279 H              1 <1>                0.0000
     21 H21          0.3084 -16.8207  10.5707 H              1 <1>                0.0000
     22 H22          0.1353 -14.7855  14.3301 H              1 <1>                0.0000
     23 H23         -1.2933 -15.6569  13.7233 H              1 <1>                0.0000
     24 H24          0.1328 -16.5647  14.2804 H              1 <1>                0.0000
     25 H25          0.3919 -11.7662   8.1661 H              1 <1>                0.0000
     26 H26          1.8188 -12.7564   8.5553 H              1 <1>                0.0000
     27 H27         -0.4478 -15.3561   6.1808 H              1 <1>                0.0000
     28 H28         -1.2838 -12.4509  11.2410 H              1 <1>                0.0000
     29 H29          0.0473 -11.2848  11.0493 H              1 <1>                0.0000
@<TRIPOS>BOND
    1    1    2 1     
    2    1   16 1     
    3    1   17 1     
    4    1   18 1     
    5    2    3 1     
    6    2    4 1     
    7    2    5 1     
    8    3   19 1     
    9    3   20 1     
   10    3   21 1     
   11    4   22 1     
   12    4   23 1     
   13    4   24 1     
   14    5    6 1     
   15    6    7 2     
   16    6    8 am    
   17    8    9 1     
   18    8   12 1     
   19    9   10 1     
   20    9   25 1     
   21    9   26 1     
   22   10   11 3     
   23   11   27 1     
   24   12   13 1     
   25   12   28 1     
   26   12   29 1     
   27   13   14 ar    
   28   13   15 ar    
@<TRIPOS>SUBSTRUCTURE
      1 ****           1
@<TRIPOS>COMMENT
> <Gold.Version>
2022.2.0

> <Gold.Id.Protein>
3pbl|protein|mol2

> <Gold.Protein.RotatedTorsions>
[ 1303 1298 1297 1294 ] final  103.13 input  179.99 | X-H torsion
[ 2461 2456 2455 2452 ] final -104.74 input   30.03 | X-H torsion
[ 2515 2510 2509 2506 ] final   43.77 input  -89.99 | X-H torsion
[ 3721 3712 3711 3710 ] final   82.97 input -179.91 | X-H torsion
[ 3841 3832 3831 3830 ] final  100.84 input -179.91 | X-H torsion
[ 3767 3762 3761 3758 ] final -172.43 input  -89.99 | X-H torsion
[ 2472 2467 2466 2463 ] final  132.34 input  -89.97 | X-H torsion

> <Gold.Protein.ActiveResidues>
 VAL82   VAL86   LEU89   PHE106  VAL107  ASP110  VAL111  MET112  CYS114  THR115 
 CYS181  SER182  ILE183  PHE188  VAL189  ILE190  SER192  SER193  SER196  TRP342 
 PHE345  PHE346  HIS349  VAL350  TYR365  THR369  GLY372  TYR373 

> <Gold.Protein.RotatedAtoms>
    4.5738   -9.9877    4.9173 H   0  0  0  0  0  0  0  0  0  0  0  0  # atno 1303 bound_to 1298
    0.4351   -9.0541    7.8840 H   0  0  0  0  0  0  0  0  0  0  0  0  # atno 2461 bound_to 2456
   -5.4848   -5.1468    8.3097 H   0  0  0  0  0  0  0  0  0  0  0  0  # atno 2472 bound_to 2467
    2.2419   -7.4102    5.2049 H   0  0  0  0  0  0  0  0  0  0  0  0  # atno 2515 bound_to 2510
   -2.7336  -17.6952   13.1526 H   0  0  0  0  0  0  0  0  0  0  0  0  # atno 3721 bound_to 3712
   -4.1679  -22.4406   11.6069 H   0  0  0  0  0  0  0  0  0  0  0  0  # atno 3767 bound_to 3762
    2.9483  -20.8689    9.1505 H   0  0  0  0  0  0  0  0  0  0  0  0  # atno 3841 bound_to 3832
    3.3325   -9.6344    3.9170 LP  0  0  0  0  0  0  0  0  0  0  0  0  # atno 4297 bound_to 1298
    4.4558   -8.4990    4.2570 LP  0  0  0  0  0  0  0  0  0  0  0  0  # atno 4298 bound_to 1298
    2.0194   -8.8244    8.2075 LP  0  0  0  0  0  0  0  0  0  0  0  0  # atno 4299 bound_to 2456
    1.2831   -7.9298    7.0568 LP  0  0  0  0  0  0  0  0  0  0  0  0  # atno 4300 bound_to 2456
    2.8357   -8.7476    4.4806 LP  0  0  0  0  0  0  0  0  0  0  0  0  # atno 4301 bound_to 2510
    2.2193   -8.8418    5.9898 LP  0  0  0  0  0  0  0  0  0  0  0  0  # atno 4302 bound_to 2510
   -2.8092  -17.7411   14.7557 LP  0  0  0  0  0  0  0  0  0  0  0  0  # atno 4306 bound_to 3712
   -3.5624  -16.5558   13.9225 LP  0  0  0  0  0  0  0  0  0  0  0  0  # atno 4307 bound_to 3712
    1.4340  -20.3674    9.3274 LP  0  0  0  0  0  0  0  0  0  0  0  0  # atno 4314 bound_to 3832
    2.3895  -19.7311    8.1660 LP  0  0  0  0  0  0  0  0  0  0  0  0  # atno 4315 bound_to 3832
   -4.4666  -23.3116   10.2582 LP  0  0  0  0  0  0  0  0  0  0  0  0  # atno 4318 bound_to 3762
   -5.4926  -22.1228   10.7063 LP  0  0  0  0  0  0  0  0  0  0  0  0  # atno 4319 bound_to 3762
   -3.9289   -4.8358    7.9239 LP  0  0  0  0  0  0  0  0  0  0  0  0  # atno 4320 bound_to 2467
   -4.3034   -5.4110    9.4056 LP  0  0  0  0  0  0  0  0  0  0  0  0  # atno 4321 bound_to 2467

> <Gold.Score>
     Score     S(PLP)   S(hbond)     S(cho)   S(metal)  DE(clash)   DE(tors)     intcor
     41.65     -40.12       1.00       0.00       0.00       0.86       0.54       0.47

> <Gold.PLP.Fitness>
41.6479

> <Gold.PLP.PLP>
-40.1178

> <Gold.PLP.part.hbond>
-1.0000

> <Gold.PLP.part.metal>
0.0000

> <Gold.PLP.part.buried>
-5.4437

> <Gold.PLP.part.nonpolar>
-36.8265

> <Gold.PLP.part.repulsive>
1.3351

> <Gold.PLP.ligand.clash>
0.8555

> <Gold.PLP.ligand.torsion>
0.5420

> <Gold.PLP.Chemscore.Hbond>
1.0000

> <Gold.PLP.Chemscore.CHOScore>
0.0000

> <Gold.PLP.Chemscore.Metal>
0.0000

> <Gold.Chemscore.Hbonds>
donor molecule, donor type, donor heavy atom, donor atom, acceptor molecule, acceptor atom, score
      P1  H  2456  2461       L1    14  1.00

> <Gold.PLP.Chemscore.Internal.Correction>
0.4696

