#       Name:                EN300-97777_i001
#       Creating user name   fsindt
#       Creation time:       Mon Feb 27 18:48:42 2023


#       File generated by GOLD software.
#

@<TRIPOS>MOLECULE
EN300-97777_i001|acide_1|mol2|382|dock3
    29    28     1
SMALL
USER_CHARGES


@<TRIPOS>ATOM
      1 C1          -1.5392 -10.5689  11.7089 C.3            1 <1>                0.0000
      2 C2          -1.5677 -11.2425  10.3355 C.3            1 <1>                0.0000
      3 C3          -2.9433 -11.8711  10.1040 C.3            1 <1>                0.0000
      4 C4          -1.2944 -10.1995   9.2500 C.3            1 <1>                0.0000
      5 O5          -0.5485 -12.2753  10.2818 O.3            1 <1>                0.0000
      6 C6          -0.7051 -13.3319  11.1016 C.2            1 <1>                0.0000
      7 O7          -1.5463 -13.3014  11.9779 O.2            1 <1>                0.0000
      8 N8           0.0712 -14.4232  10.9502 N.am           1 <1>                0.0000
      9 C9           1.0854 -14.4598   9.8936 C.3            1 <1>                0.0000
     10 C10          0.4242 -14.4570   8.5785 C.1            1 <1>                0.0000
     11 C11         -0.1031 -14.4548   7.5296 C.1            1 <1>                0.0000
     12 C12         -0.0992 -15.5728  11.8422 C.3            1 <1>                0.0000
     13 C13          1.0675 -15.6478  12.7932 C.2            1 <1>                0.0000
     14 O14          2.2016 -15.7569  12.3594 O.co2          1 <1>                0.0000
     15 O15          0.8771 -15.5994  13.9966 O.co2          1 <1>               -1.0000
     16 H16         -1.7339 -11.3120  12.4821 H              1 <1>                0.0000
     17 H17         -0.5592 -10.1211  11.8737 H              1 <1>                0.0000
     18 H18         -2.3044  -9.7936  11.7492 H              1 <1>                0.0000
     19 H19         -3.7084 -11.0958  10.1443 H              1 <1>                0.0000
     20 H20         -2.9635 -12.3511   9.1256 H              1 <1>                0.0000
     21 H21         -3.1380 -12.6142  10.8774 H              1 <1>                0.0000
     22 H22         -0.3143  -9.7517   9.4149 H              1 <1>                0.0000
     23 H23         -1.3146 -10.6794   8.2715 H              1 <1>                0.0000
     24 H24         -2.0595  -9.4243   9.2903 H              1 <1>                0.0000
     25 H25          1.7298 -13.5849   9.9782 H              1 <1>                0.0000
     26 H26          1.6851 -15.3641   9.9968 H              1 <1>                0.0000
     27 H27         -0.5748 -14.4528   6.5915 H              1 <1>                0.0000
     28 H28         -1.0232 -15.4590  12.4091 H              1 <1>                0.0000
     29 H29         -0.1456 -16.4875  11.2513 H              1 <1>                0.0000
@<TRIPOS>BOND
    1    1    2 1     
    2    1   16 1     
    3    1   17 1     
    4    1   18 1     
    5    2    3 1     
    6    2    4 1     
    7    2    5 1     
    8    3   19 1     
    9    3   20 1     
   10    3   21 1     
   11    4   22 1     
   12    4   23 1     
   13    4   24 1     
   14    5    6 1     
   15    6    7 2     
   16    6    8 am    
   17    8    9 1     
   18    8   12 1     
   19    9   10 1     
   20    9   25 1     
   21    9   26 1     
   22   10   11 3     
   23   11   27 1     
   24   12   13 1     
   25   12   28 1     
   26   12   29 1     
   27   13   14 ar    
   28   13   15 ar    
@<TRIPOS>SUBSTRUCTURE
      1 ****           1
@<TRIPOS>COMMENT
> <Gold.Version>
2022.2.0

> <Gold.Id.Protein>
3pbl|protein|mol2

> <Gold.Protein.RotatedTorsions>
[ 1303 1298 1297 1294 ] final -167.62 input  179.99 | X-H torsion
[ 2461 2456 2455 2452 ] final  141.45 input   30.03 | X-H torsion
[ 2515 2510 2509 2506 ] final -146.18 input  -89.99 | X-H torsion
[ 3721 3712 3711 3710 ] final  -75.24 input -179.91 | X-H torsion
[ 3841 3832 3831 3830 ] final  -61.77 input -179.91 | X-H torsion
[ 3767 3762 3761 3758 ] final  -40.68 input  -89.99 | X-H torsion
[ 2472 2467 2466 2463 ] final  109.33 input  -89.97 | X-H torsion

> <Gold.Protein.ActiveResidues>
 VAL82   VAL86   LEU89   PHE106  VAL107  ASP110  VAL111  MET112  CYS114  THR115 
 CYS181  SER182  ILE183  PHE188  VAL189  ILE190  SER192  SER193  SER196  TRP342 
 PHE345  PHE346  HIS349  VAL350  TYR365  THR369  GLY372  TYR373 

> <Gold.Protein.RotatedAtoms>
    4.7748   -8.7263    4.5676 H   0  0  0  0  0  0  0  0  0  0  0  0  # atno 1303 bound_to 1298
    1.9623   -8.8932    8.2563 H   0  0  0  0  0  0  0  0  0  0  0  0  # atno 2461 bound_to 2456
   -5.3276   -5.0158    7.9941 H   0  0  0  0  0  0  0  0  0  0  0  0  # atno 2472 bound_to 2467
    2.5585   -9.2513    5.3955 H   0  0  0  0  0  0  0  0  0  0  0  0  # atno 2515 bound_to 2510
   -2.9146  -17.1319   14.7475 H   0  0  0  0  0  0  0  0  0  0  0  0  # atno 3721 bound_to 3712
   -5.5111  -22.2351   10.5504 H   0  0  0  0  0  0  0  0  0  0  0  0  # atno 3767 bound_to 3762
    1.6223  -19.7961    9.0110 H   0  0  0  0  0  0  0  0  0  0  0  0  # atno 3841 bound_to 3832
    4.1788  -10.2369    4.7389 LP  0  0  0  0  0  0  0  0  0  0  0  0  # atno 4297 bound_to 1298
    3.4083   -9.1584    3.7850 LP  0  0  0  0  0  0  0  0  0  0  0  0  # atno 4298 bound_to 1298
    1.3815   -7.9194    7.0808 LP  0  0  0  0  0  0  0  0  0  0  0  0  # atno 4299 bound_to 2456
    0.3942   -8.9957    7.8112 LP  0  0  0  0  0  0  0  0  0  0  0  0  # atno 4300 bound_to 2456
    2.0370   -7.7819    5.8801 LP  0  0  0  0  0  0  0  0  0  0  0  0  # atno 4301 bound_to 2510
    2.7012   -7.9655    4.3996 LP  0  0  0  0  0  0  0  0  0  0  0  0  # atno 4302 bound_to 2510
   -3.4908  -16.7787   13.2912 LP  0  0  0  0  0  0  0  0  0  0  0  0  # atno 4306 bound_to 3712
   -2.6719  -18.1685   13.5456 LP  0  0  0  0  0  0  0  0  0  0  0  0  # atno 4307 bound_to 3712
    2.9642  -20.1960    8.2265 LP  0  0  0  0  0  0  0  0  0  0  0  0  # atno 4314 bound_to 3832
    2.3912  -21.1418    9.4281 LP  0  0  0  0  0  0  0  0  0  0  0  0  # atno 4315 bound_to 3832
   -4.3004  -22.3052   11.6441 LP  0  0  0  0  0  0  0  0  0  0  0  0  # atno 4318 bound_to 3762
   -4.3162  -23.3346   10.3765 LP  0  0  0  0  0  0  0  0  0  0  0  0  # atno 4319 bound_to 3762
   -3.7134   -4.9190    8.2207 LP  0  0  0  0  0  0  0  0  0  0  0  0  # atno 4320 bound_to 2467
   -4.6760   -5.4587    9.4243 LP  0  0  0  0  0  0  0  0  0  0  0  0  # atno 4321 bound_to 2467

> <Gold.Score>
     Score     S(PLP)   S(hbond)     S(cho)   S(metal)  DE(clash)   DE(tors)     intcor
     43.37     -41.10       0.96       0.00       0.00       0.51       0.31       0.52

> <Gold.PLP.Fitness>
43.3716

> <Gold.PLP.PLP>
-41.1021

> <Gold.PLP.part.hbond>
-2.0000

> <Gold.PLP.part.metal>
0.0000

> <Gold.PLP.part.buried>
-0.9194

> <Gold.PLP.part.nonpolar>
-39.4267

> <Gold.PLP.part.repulsive>
0.2441

> <Gold.PLP.ligand.clash>
0.5098

> <Gold.PLP.ligand.torsion>
0.3096

> <Gold.PLP.Chemscore.Hbond>
0.9588

> <Gold.PLP.Chemscore.CHOScore>
0.0000

> <Gold.PLP.Chemscore.Metal>
0.0000

> <Gold.Chemscore.Hbonds>
donor molecule, donor type, donor heavy atom, donor atom, acceptor molecule, acceptor atom, score
      P1  H  2305  2313       L1    15  0.96

> <Gold.PLP.Chemscore.Internal.Correction>
0.5224

