#       Name:                plp ligand
#       Creating user name   fsindt
#       Creation time:       Mon Feb 27 18:48:39 2023


#       File generated by GOLD software.
#

@<TRIPOS>MOLECULE
plp ligand
    29    28     1
SMALL
USER_CHARGES


@<TRIPOS>ATOM
      1 C1           2.2712  -0.4355   1.4044 NONPOLAR       1 <1>                0.0000
      2 C2           1.9723  -0.2732  -0.0873 NONPOLAR       1 <1>                0.0000
      3 C3           2.3201   1.1510  -0.5252 NONPOLAR       1 <1>                0.0000
      4 C4           2.8111  -1.2719  -0.8872 NONPOLAR       1 <1>                0.0000
      5 O5           0.5624  -0.5229  -0.3284 ACCEPTOR       1 <1>                0.0000
      6 C6          -0.3170   0.2755   0.3058 NONPOLAR       1 <1>                0.0000
      7 O7           0.0829   1.1568   1.0405 ACCEPTOR       1 <1>                0.0000
      8 N8          -1.6407   0.0971   0.1256 NONPOLAR       1 <1>                0.0000
      9 C9          -2.5975   0.9658   0.8156 NONPOLAR       1 <1>                0.0000
     10 C10         -2.8908   2.1380  -0.0251 NONPOLAR       1 <1>                0.0000
     11 C11         -3.1247   3.0728  -0.6956 NONPOLAR       1 <1>                0.0000
     12 C12         -2.1227  -0.9655  -0.7603 NONPOLAR       1 <1>                0.0000
     13 C13         -2.3158  -2.2320   0.0333 NONPOLAR       1 <1>                0.0000
     14 O14         -2.0732  -2.2458   1.2280 ACCEPTOR       1 <1>                0.0000
     15 O15         -2.7146  -3.2429  -0.5195 ACCEPTOR       1 <1>               -1.0000
     16 H16          1.6736   0.2760   1.9742                1 <1>                0.0000
     17 H17          2.0234  -1.4501   1.7163                1 <1>                0.0000
     18 H18          3.3296  -0.2480   1.5854                1 <1>                0.0000
     19 H19          3.3785   1.3384  -0.3442                1 <1>                0.0000
     20 H20          2.1071   1.2666  -1.5879                1 <1>                0.0000
     21 H21          1.7225   1.8625   0.0447                1 <1>                0.0000
     22 H22          2.5633  -2.2865  -0.5752                1 <1>                0.0000
     23 H23          2.5982  -1.1563  -1.9499                1 <1>                0.0000
     24 H24          3.8695  -1.0844  -0.7062                1 <1>                0.0000
     25 H25         -3.5185   0.4143   1.0041                1 <1>                0.0000
     26 H26         -2.1711   1.2957   1.7629                1 <1>                0.0000
     27 H27         -3.3339   3.9090  -1.2953                1 <1>                0.0000
     28 H28         -3.0725  -0.6661  -1.2035                1 <1>                0.0000
     29 H29         -1.3920  -1.1395  -1.5501                1 <1>                0.0000
@<TRIPOS>BOND
    1    1    2 1     
    2    1   16 1     
    3    1   17 1     
    4    1   18 1     
    5    2    3 1     
    6    2    4 1     
    7    2    5 1     
    8    3   19 1     
    9    3   20 1     
   10    3   21 1     
   11    4   22 1     
   12    4   23 1     
   13    4   24 1     
   14    5    6 1     
   15    6    7 2     
   16    6    8 am    
   17    8    9 1     
   18    8   12 1     
   19    9   10 1     
   20    9   25 1     
   21    9   26 1     
   22   10   11 3     
   23   11   27 1     
   24   12   13 1     
   25   12   28 1     
   26   12   29 1     
   27   13   14 ar    
   28   13   15 ar    
@<TRIPOS>SUBSTRUCTURE
      1 ****           1
@<TRIPOS>SET
DONOR_HYDROGENS      STATIC     ATOMS    <user>   **** ""
0
ATOM$RED        STATIC     ATOMS    COLORGROUP SYSTEM
0
