#       Name:                EN300-110418_i004
#       Creating user name   fsindt
#       Creation time:       Tue Feb 28 15:25:02 2023


#       File generated by GOLD software.
#

@<TRIPOS>MOLECULE
EN300-110418_i004|amine_7|mol2|6400|dock7
    34    35     1
SMALL
USER_CHARGES


@<TRIPOS>ATOM
      1 C1           1.1090 -11.7044   8.0163 C.3            1 <1>                0.0000
      2 N2           0.3524 -12.7620   7.3330 N.4            1 <1>                1.0000
      3 C3           1.2890 -13.7434   6.7453 C.3            1 <1>                0.0000
      4 C4           0.5827 -15.1122   6.9101 C.3            1 <1>                0.0000
      5 C5          -0.1010 -14.9475   8.2930 C.3            1 <1>                0.0000
      6 C6          -0.5113 -13.4599   8.3030 C.3            1 <1>                0.0000
      7 C7          -0.3081 -12.8813   9.6796 C.2            1 <1>                0.0000
      8 O8           0.6675 -13.1918  10.3299 O.2            1 <1>                0.0000
      9 N9          -1.2104 -12.0189  10.1880 N.am           1 <1>                0.0000
     10 C10         -0.9810 -11.3635  11.4846 C.3            1 <1>                0.0000
     11 C11         -1.1783  -9.8541  11.3087 C.3            1 <1>                0.0000
     12 N12         -2.4958  -9.6021  10.7098 N.3            1 <1>                0.0000
     13 C13         -2.5901 -10.1853   9.3648 C.3            1 <1>                0.0000
     14 C14         -2.4478 -11.7037   9.4583 C.3            1 <1>                0.0000
     15 H15          1.6579 -11.1169   7.2803 H              1 <1>                0.0000
     16 H16          0.4196 -11.0562   8.5574 H              1 <1>                0.0000
     17 H17          1.8106 -12.1550   8.7181 H              1 <1>                0.0000
     18 H18          1.4537 -13.5259   5.6900 H              1 <1>                0.0000
     19 H19          2.2348 -13.7368   7.2871 H              1 <1>                0.0000
     20 H20         -0.1571 -15.2668   6.1247 H              1 <1>                0.0000
     21 H21          1.3076 -15.9260   6.9273 H              1 <1>                0.0000
     22 H22         -0.9784 -15.5898   8.3680 H              1 <1>                0.0000
     23 H23          0.6026 -15.1587   9.0983 H              1 <1>                0.0000
     24 H24         -1.5559 -13.3614   8.0074 H              1 <1>                0.0000
     25 H25         -1.6929 -11.7428  12.2176 H              1 <1>                0.0000
     26 H26          0.0364 -11.5631  11.8208 H              1 <1>                0.0000
     27 H27         -1.1207  -9.3640  12.2806 H              1 <1>                0.0000
     28 H28         -0.4003  -9.4593  10.6553 H              1 <1>                0.0000
     29 H29         -3.5565  -9.9354   8.9271 H              1 <1>                0.0000
     30 H30         -1.7925  -9.7859   8.7385 H              1 <1>                0.0000
     31 H31         -2.4023 -12.1295   8.4559 H              1 <1>                0.0000
     32 H32         -3.2996 -12.1187   9.9971 H              1 <1>                0.0000
     33 H33         -3.2350  -9.9447  11.3051 H              1 <1>                0.0000
     34 H34         -0.2165 -12.3572   6.6046 H              1 <1>                0.0000
@<TRIPOS>BOND
    1    1    2 1     
    2    1   15 1     
    3    1   16 1     
    4    1   17 1     
    5    2    3 1     
    6    2    6 1     
    7    2   34 1     
    8    3    4 1     
    9    3   18 1     
   10    3   19 1     
   11    4    5 1     
   12    4   20 1     
   13    4   21 1     
   14    5    6 1     
   15    5   22 1     
   16    5   23 1     
   17    6    7 1     
   18    6   24 1     
   19    7    8 2     
   20    7    9 am    
   21    9   10 1     
   22    9   14 1     
   23   10   11 1     
   24   10   25 1     
   25   10   26 1     
   26   11   12 1     
   27   11   27 1     
   28   11   28 1     
   29   12   13 1     
   30   12   33 1     
   31   13   14 1     
   32   13   29 1     
   33   13   30 1     
   34   14   31 1     
   35   14   32 1     
@<TRIPOS>SUBSTRUCTURE
      1 ****           1
@<TRIPOS>SET
DONOR_HYDROGENS      STATIC     ATOMS    <user>   **** ""
2 34 33
ATOM$RED        STATIC     ATOMS    COLORGROUP SYSTEM
2 34 33
@<TRIPOS>COMMENT
> <Gold.Version>
2022.2.0

> <Gold.Id.Protein>
3pbl|protein|mol2

> <Gold.Protein.RotatedTorsions>
[ 1303 1298 1297 1294 ] final  -76.48 input  179.99 | X-H torsion
[ 2461 2456 2455 2452 ] final  161.56 input   30.03 | X-H torsion
[ 2515 2510 2509 2506 ] final   57.24 input  -89.99 | X-H torsion
[ 3721 3712 3711 3710 ] final   11.13 input -179.91 | X-H torsion
[ 3841 3832 3831 3830 ] final   51.33 input -179.91 | X-H torsion
[ 3767 3762 3761 3758 ] final   74.88 input  -89.99 | X-H torsion
[ 2472 2467 2466 2463 ] final   66.83 input  -89.97 | X-H torsion

> <Gold.Protein.ActiveResidues>
 VAL82   VAL86   LEU89   PHE106  VAL107  ASP110  VAL111  MET112  CYS114  THR115 
 CYS181  SER182  ILE183  PHE188  VAL189  ILE190  SER192  SER193  SER196  TRP342 
 PHE345  PHE346  HIS349  VAL350  TYR365  THR369  GLY372  TYR373 

> <Gold.Protein.RotatedAtoms>
    3.6629   -8.7642    3.8096 H   0  0  0  0  0  0  0  0  0  0  0  0  # atno 1303 bound_to 1298
    1.7226   -9.0892    8.3684 H   0  0  0  0  0  0  0  0  0  0  0  0  # atno 2461 bound_to 2456
   -4.7538   -4.8357    7.6697 H   0  0  0  0  0  0  0  0  0  0  0  0  # atno 2472 bound_to 2467
    2.1643   -7.4483    5.4084 H   0  0  0  0  0  0  0  0  0  0  0  0  # atno 2515 bound_to 2510
   -2.4715  -18.0082   14.0833 H   0  0  0  0  0  0  0  0  0  0  0  0  # atno 3721 bound_to 3712
   -4.3710  -23.3290   10.3286 H   0  0  0  0  0  0  0  0  0  0  0  0  # atno 3767 bound_to 3762
    2.3523  -20.9148    9.5607 H   0  0  0  0  0  0  0  0  0  0  0  0  # atno 3841 bound_to 3832
    4.9087   -9.1073    4.8078 LP  0  0  0  0  0  0  0  0  0  0  0  0  # atno 4297 bound_to 1298
    3.7908  -10.2501    4.4744 LP  0  0  0  0  0  0  0  0  0  0  0  0  # atno 4298 bound_to 1298
    1.6845   -7.9407    7.2078 LP  0  0  0  0  0  0  0  0  0  0  0  0  # atno 4299 bound_to 2456
    0.3309   -8.7784    7.5721 LP  0  0  0  0  0  0  0  0  0  0  0  0  # atno 4300 bound_to 2456
    2.8276   -8.5436    4.3955 LP  0  0  0  0  0  0  0  0  0  0  0  0  # atno 4301 bound_to 2510
    2.3050   -9.0076    5.8713 LP  0  0  0  0  0  0  0  0  0  0  0  0  # atno 4302 bound_to 2510
   -3.3727  -16.7824   14.5962 LP  0  0  0  0  0  0  0  0  0  0  0  0  # atno 4306 bound_to 3712
   -3.3016  -17.1531   13.0074 LP  0  0  0  0  0  0  0  0  0  0  0  0  # atno 4307 bound_to 3712
    1.5146  -19.7985    8.7681 LP  0  0  0  0  0  0  0  0  0  0  0  0  # atno 4314 bound_to 3832
    2.9974  -20.2470    8.2515 LP  0  0  0  0  0  0  0  0  0  0  0  0  # atno 4315 bound_to 3832
   -5.5082  -22.1909   10.6084 LP  0  0  0  0  0  0  0  0  0  0  0  0  # atno 4318 bound_to 3762
   -4.2481  -22.3554   11.6339 LP  0  0  0  0  0  0  0  0  0  0  0  0  # atno 4319 bound_to 3762
   -3.6848   -5.1477    8.8639 LP  0  0  0  0  0  0  0  0  0  0  0  0  # atno 4320 bound_to 2467
   -5.2783   -5.4101    9.1054 LP  0  0  0  0  0  0  0  0  0  0  0  0  # atno 4321 bound_to 2467

> <Gold.Score>
     Score     S(PLP)   S(hbond)     S(cho)   S(metal)  DE(clash)   DE(tors)     intcor
     42.41     -42.91       0.00       0.00       0.00       0.00       0.54       0.59

> <Gold.PLP.Fitness>
42.4101

> <Gold.PLP.PLP>
-42.9069

> <Gold.PLP.part.hbond>
-1.0000

> <Gold.PLP.part.metal>
0.0000

> <Gold.PLP.part.buried>
-2.9301

> <Gold.PLP.part.nonpolar>
-40.0005

> <Gold.PLP.part.repulsive>
0.0069

> <Gold.PLP.ligand.clash>
0.0000

> <Gold.PLP.ligand.torsion>
0.5418

> <Gold.PLP.Chemscore.Hbond>
0.0000

> <Gold.PLP.Chemscore.CHOScore>
0.0000

> <Gold.PLP.Chemscore.Metal>
0.0000

> <Gold.PLP.Chemscore.Internal.Correction>
0.5868

