#       Name:                EN300-110418_i004
#       Creating user name   fsindt
#       Creation time:       Tue Feb 28 15:24:59 2023


#       File generated by GOLD software.
#

@<TRIPOS>MOLECULE
EN300-110418_i004|amine_7|mol2|6400|dock2
    34    35     1
SMALL
USER_CHARGES


@<TRIPOS>ATOM
      1 C1          -0.2333 -10.3529  10.8938 C.3            1 <1>                0.0000
      2 N2          -1.4789 -11.1165  11.0469 N.4            1 <1>                1.0000
      3 C3          -2.6017 -10.1902  11.3058 C.3            1 <1>                0.0000
      4 C4          -3.8099 -10.8163  10.5655 C.3            1 <1>                0.0000
      5 C5          -3.1350 -11.3847   9.2894 C.3            1 <1>                0.0000
      6 C6          -1.7606 -11.8603   9.8053 C.3            1 <1>                0.0000
      7 C7          -0.6975 -11.5656   8.7787 C.2            1 <1>                0.0000
      8 O8          -0.7020 -10.5062   8.1881 O.2            1 <1>                0.0000
      9 N9           0.2582 -12.4791   8.5168 N.am           1 <1>                0.0000
     10 C10          0.2240 -13.8087   9.1447 C.3            1 <1>                0.0000
     11 C11          0.3646 -14.8689   8.0473 C.3            1 <1>                0.0000
     12 N12          1.5669 -14.5887   7.2511 N.3            1 <1>                0.0000
     13 C13          1.4588 -13.2974   6.5592 C.3            1 <1>                0.0000
     14 C14          1.3597 -12.1748   7.5910 C.3            1 <1>                0.0000
     15 H15          0.0329  -9.8970  11.8475 H              1 <1>                0.0000
     16 H16          0.5661 -11.0218  10.5752 H              1 <1>                0.0000
     17 H17         -0.3747  -9.5733  10.1453 H              1 <1>                0.0000
     18 H18         -2.8030 -10.1275  12.3753 H              1 <1>                0.0000
     19 H19         -2.3796  -9.2024  10.9020 H              1 <1>                0.0000
     20 H20         -4.2600 -11.6133  11.1571 H              1 <1>                0.0000
     21 H21         -4.5484 -10.0561  10.3109 H              1 <1>                0.0000
     22 H22         -3.7079 -12.2220   8.8909 H              1 <1>                0.0000
     23 H23         -3.0155 -10.6052   8.5368 H              1 <1>                0.0000
     24 H24         -1.7923 -12.9299  10.0130 H              1 <1>                0.0000
     25 H25          1.0489 -13.9013   9.8511 H              1 <1>                0.0000
     26 H26         -0.7243 -13.9436   9.6649 H              1 <1>                0.0000
     27 H27          0.4518 -15.8551   8.5033 H              1 <1>                0.0000
     28 H28         -0.5134 -14.8428   7.4018 H              1 <1>                0.0000
     29 H29          2.3398 -13.1438   5.9361 H              1 <1>                0.0000
     30 H30          0.5657 -13.2932   5.9344 H              1 <1>                0.0000
     31 H31          1.1647 -11.2290   7.0854 H              1 <1>                0.0000
     32 H32          2.2928 -12.1085   8.1506 H              1 <1>                0.0000
     33 H33          2.3964 -14.6234   7.8246 H              1 <1>                0.0000
     34 H34         -1.3888 -11.7641  11.8153 H              1 <1>                0.0000
@<TRIPOS>BOND
    1    1    2 1     
    2    1   15 1     
    3    1   16 1     
    4    1   17 1     
    5    2    3 1     
    6    2    6 1     
    7    2   34 1     
    8    3    4 1     
    9    3   18 1     
   10    3   19 1     
   11    4    5 1     
   12    4   20 1     
   13    4   21 1     
   14    5    6 1     
   15    5   22 1     
   16    5   23 1     
   17    6    7 1     
   18    6   24 1     
   19    7    8 2     
   20    7    9 am    
   21    9   10 1     
   22    9   14 1     
   23   10   11 1     
   24   10   25 1     
   25   10   26 1     
   26   11   12 1     
   27   11   27 1     
   28   11   28 1     
   29   12   13 1     
   30   12   33 1     
   31   13   14 1     
   32   13   29 1     
   33   13   30 1     
   34   14   31 1     
   35   14   32 1     
@<TRIPOS>SUBSTRUCTURE
      1 ****           1
@<TRIPOS>SET
DONOR_HYDROGENS      STATIC     ATOMS    <user>   **** ""
2 34 33
ATOM$RED        STATIC     ATOMS    COLORGROUP SYSTEM
2 34 33
@<TRIPOS>COMMENT
> <Gold.Version>
2022.2.0

> <Gold.Id.Protein>
3pbl|protein|mol2

> <Gold.Protein.RotatedTorsions>
[ 1303 1298 1297 1294 ] final  106.63 input  179.99 | X-H torsion
[ 2461 2456 2455 2452 ] final  -99.13 input   30.03 | X-H torsion
[ 2515 2510 2509 2506 ] final   10.61 input  -89.99 | X-H torsion
[ 3721 3712 3711 3710 ] final -166.44 input -179.91 | X-H torsion
[ 3841 3832 3831 3830 ] final  114.59 input -179.91 | X-H torsion
[ 3767 3762 3761 3758 ] final  179.34 input  -89.99 | X-H torsion
[ 2472 2467 2466 2463 ] final  133.64 input  -89.97 | X-H torsion

> <Gold.Protein.ActiveResidues>
 VAL82   VAL86   LEU89   PHE106  VAL107  ASP110  VAL111  MET112  CYS114  THR115 
 CYS181  SER182  ILE183  PHE188  VAL189  ILE190  SER192  SER193  SER196  TRP342 
 PHE345  PHE346  HIS349  VAL350  TYR365  THR369  GLY372  TYR373 

> <Gold.Protein.RotatedAtoms>
    4.6125   -9.9465    4.9283 H   0  0  0  0  0  0  0  0  0  0  0  0  # atno 1303 bound_to 1298
    0.3974   -9.0014    7.8182 H   0  0  0  0  0  0  0  0  0  0  0  0  # atno 2461 bound_to 2456
   -5.4895   -5.1544    8.3292 H   0  0  0  0  0  0  0  0  0  0  0  0  # atno 2472 bound_to 2467
    2.4675   -7.5308    4.7317 H   0  0  0  0  0  0  0  0  0  0  0  0  # atno 2515 bound_to 2510
   -3.3384  -16.5483   13.7417 H   0  0  0  0  0  0  0  0  0  0  0  0  # atno 3721 bound_to 3712
   -4.0887  -22.5408   11.5621 H   0  0  0  0  0  0  0  0  0  0  0  0  # atno 3767 bound_to 3762
    3.0515  -20.7715    8.9994 H   0  0  0  0  0  0  0  0  0  0  0  0  # atno 3841 bound_to 3832
    3.3381   -9.6864    3.9411 LP  0  0  0  0  0  0  0  0  0  0  0  0  # atno 4297 bound_to 1298
    4.4114   -8.4881    4.2219 LP  0  0  0  0  0  0  0  0  0  0  0  0  # atno 4298 bound_to 1298
    1.9678   -8.8868    8.2518 LP  0  0  0  0  0  0  0  0  0  0  0  0  # atno 4299 bound_to 2456
    1.3723   -7.9201    7.0782 LP  0  0  0  0  0  0  0  0  0  0  0  0  # atno 4300 bound_to 2456
    2.7628   -9.1323    4.8498 LP  0  0  0  0  0  0  0  0  0  0  0  0  # atno 4301 bound_to 2510
    2.0663   -8.3364    6.0940 LP  0  0  0  0  0  0  0  0  0  0  0  0  # atno 4302 bound_to 2510
   -2.8185  -17.9666   13.1978 LP  0  0  0  0  0  0  0  0  0  0  0  0  # atno 4306 bound_to 3712
   -2.8549  -17.6544   14.8002 LP  0  0  0  0  0  0  0  0  0  0  0  0  # atno 4307 bound_to 3712
    1.5229  -20.5492    9.4351 LP  0  0  0  0  0  0  0  0  0  0  0  0  # atno 4314 bound_to 3832
    2.1815  -19.6618    8.2328 LP  0  0  0  0  0  0  0  0  0  0  0  0  # atno 4315 bound_to 3832
   -4.5786  -23.2782   10.1898 LP  0  0  0  0  0  0  0  0  0  0  0  0  # atno 4318 bound_to 3762
   -5.4599  -22.0560   10.8194 LP  0  0  0  0  0  0  0  0  0  0  0  0  # atno 4319 bound_to 3762
   -3.9446   -4.8324    7.9096 LP  0  0  0  0  0  0  0  0  0  0  0  0  # atno 4320 bound_to 2467
   -4.2830   -5.4068    9.4003 LP  0  0  0  0  0  0  0  0  0  0  0  0  # atno 4321 bound_to 2467

> <Gold.Score>
     Score     S(PLP)   S(hbond)     S(cho)   S(metal)  DE(clash)   DE(tors)     intcor
     49.29     -46.59       1.00       0.00       0.00       0.00       0.46       0.61

> <Gold.PLP.Fitness>
49.2861

> <Gold.PLP.PLP>
-46.5900

> <Gold.PLP.part.hbond>
-1.7618

> <Gold.PLP.part.metal>
0.0000

> <Gold.PLP.part.buried>
-4.3452

> <Gold.PLP.part.nonpolar>
-42.1232

> <Gold.PLP.part.repulsive>
0.0726

> <Gold.PLP.ligand.clash>
0.0000

> <Gold.PLP.ligand.torsion>
0.4567

> <Gold.PLP.Chemscore.Hbond>
1.0000

> <Gold.PLP.Chemscore.CHOScore>
0.0000

> <Gold.PLP.Chemscore.Metal>
0.0000

> <Gold.Chemscore.Hbonds>
donor molecule, donor type, donor heavy atom, donor atom, acceptor molecule, acceptor atom, score
      P1  H  2456  2461       L1     8  1.00

> <Gold.PLP.Chemscore.Internal.Correction>
0.6096

