#       Name:                EN300-110418_i004
#       Creating user name   fsindt
#       Creation time:       Tue Feb 28 15:25:08 2023


#       File generated by GOLD software.
#

@<TRIPOS>MOLECULE
EN300-110418_i004|amine_7|mol2|6400|dock18
    34    35     1
SMALL
USER_CHARGES


@<TRIPOS>ATOM
      1 C1           1.0617 -12.3850   6.8736 C.3            1 <1>                0.0000
      2 N2           0.2290 -13.5943   6.9169 N.4            1 <1>                1.0000
      3 C3           1.0550 -14.7789   6.6000 C.3            1 <1>                0.0000
      4 C4           0.4933 -15.9057   7.5024 C.3            1 <1>                0.0000
      5 C5           0.1528 -15.1271   8.8005 C.3            1 <1>                0.0000
      6 C6          -0.3327 -13.7619   8.2698 C.3            1 <1>                0.0000
      7 C7           0.1595 -12.6576   9.1695 C.2            1 <1>                0.0000
      8 O8           1.2940 -12.6845   9.5976 O.2            1 <1>                0.0000
      9 N9          -0.6610 -11.6403   9.4985 N.am           1 <1>                0.0000
     10 C10         -2.0697 -11.6395   9.0758 C.3            1 <1>                0.0000
     11 C11         -2.9465 -11.3776  10.3050 C.3            1 <1>                0.0000
     12 N12         -2.4970 -10.1474  10.9701 N.3            1 <1>                0.0000
     13 C13         -1.1228 -10.2841  11.4710 C.3            1 <1>                0.0000
     14 C14         -0.1727 -10.5042  10.2948 C.3            1 <1>                0.0000
     15 H15          1.3813 -12.2004   5.8479 H              1 <1>                0.0000
     16 H16          0.4844 -11.5332   7.2331 H              1 <1>                0.0000
     17 H17          1.9374 -12.5239   7.5075 H              1 <1>                0.0000
     18 H18          0.9480 -15.0459   5.5486 H              1 <1>                0.0000
     19 H19          2.1010 -14.5870   6.8392 H              1 <1>                0.0000
     20 H20         -0.4026 -16.3462   7.0650 H              1 <1>                0.0000
     21 H21          1.2492 -16.6680   7.6912 H              1 <1>                0.0000
     22 H22         -0.6402 -15.6295   9.3543 H              1 <1>                0.0000
     23 H23          1.0406 -15.0058   9.4212 H              1 <1>                0.0000
     24 H24         -1.4216 -13.7479   8.2236 H              1 <1>                0.0000
     25 H25         -2.2300 -10.8539   8.3375 H              1 <1>                0.0000
     26 H26         -2.3232 -12.6081   8.6449 H              1 <1>                0.0000
     27 H27         -3.9849 -11.2641   9.9935 H              1 <1>                0.0000
     28 H28         -2.8634 -12.2161  10.9964 H              1 <1>                0.0000
     29 H29         -0.8386  -9.3775  12.0052 H              1 <1>                0.0000
     30 H30         -1.0651 -11.1378  12.1462 H              1 <1>                0.0000
     31 H31          0.8283 -10.7199  10.6682 H              1 <1>                0.0000
     32 H32         -0.1493  -9.6106   9.6710 H              1 <1>                0.0000
     33 H33         -2.5800  -9.3524  10.3542 H              1 <1>                0.0000
     34 H34         -0.5216 -13.5148   6.2472 H              1 <1>                0.0000
@<TRIPOS>BOND
    1    1    2 1     
    2    1   15 1     
    3    1   16 1     
    4    1   17 1     
    5    2    3 1     
    6    2    6 1     
    7    2   34 1     
    8    3    4 1     
    9    3   18 1     
   10    3   19 1     
   11    4    5 1     
   12    4   20 1     
   13    4   21 1     
   14    5    6 1     
   15    5   22 1     
   16    5   23 1     
   17    6    7 1     
   18    6   24 1     
   19    7    8 2     
   20    7    9 am    
   21    9   10 1     
   22    9   14 1     
   23   10   11 1     
   24   10   25 1     
   25   10   26 1     
   26   11   12 1     
   27   11   27 1     
   28   11   28 1     
   29   12   13 1     
   30   12   33 1     
   31   13   14 1     
   32   13   29 1     
   33   13   30 1     
   34   14   31 1     
   35   14   32 1     
@<TRIPOS>SUBSTRUCTURE
      1 ****           1
@<TRIPOS>SET
DONOR_HYDROGENS      STATIC     ATOMS    <user>   **** ""
2 34 33
ATOM$RED        STATIC     ATOMS    COLORGROUP SYSTEM
2 34 33
@<TRIPOS>COMMENT
> <Gold.Version>
2022.2.0

> <Gold.Id.Protein>
3pbl|protein|mol2

> <Gold.Protein.RotatedTorsions>
[ 1303 1298 1297 1294 ] final  146.77 input  179.99 | X-H torsion
[ 2461 2456 2455 2452 ] final  153.93 input   30.03 | X-H torsion
[ 2515 2510 2509 2506 ] final -139.08 input  -89.99 | X-H torsion
[ 3721 3712 3711 3710 ] final  -82.07 input -179.91 | X-H torsion
[ 3841 3832 3831 3830 ] final  108.55 input -179.91 | X-H torsion
[ 3767 3762 3761 3758 ] final -115.52 input  -89.99 | X-H torsion
[ 2472 2467 2466 2463 ] final  147.27 input  -89.97 | X-H torsion

> <Gold.Protein.ActiveResidues>
 VAL82   VAL86   LEU89   PHE106  VAL107  ASP110  VAL111  MET112  CYS114  THR115 
 CYS181  SER182  ILE183  PHE188  VAL189  ILE190  SER192  SER193  SER196  TRP342 
 PHE345  PHE346  HIS349  VAL350  TYR365  THR369  GLY372  TYR373 

> <Gold.Protein.RotatedAtoms>
    4.8960   -9.3657    4.8999 H   0  0  0  0  0  0  0  0  0  0  0  0  # atno 1303 bound_to 1298
    1.8221   -9.0206    8.3347 H   0  0  0  0  0  0  0  0  0  0  0  0  # atno 2461 bound_to 2456
   -5.5097   -5.2319    8.5381 H   0  0  0  0  0  0  0  0  0  0  0  0  # atno 2472 bound_to 2467
    2.6049   -9.2574    5.2886 H   0  0  0  0  0  0  0  0  0  0  0  0  # atno 2515 bound_to 2510
   -2.9661  -17.0453   14.7254 H   0  0  0  0  0  0  0  0  0  0  0  0  # atno 3721 bound_to 3712
   -4.9099  -21.9491   11.4831 H   0  0  0  0  0  0  0  0  0  0  0  0  # atno 3767 bound_to 3762
    3.0109  -20.8183    9.0664 H   0  0  0  0  0  0  0  0  0  0  0  0  # atno 3841 bound_to 3832
    3.5974  -10.1557    4.3034 LP  0  0  0  0  0  0  0  0  0  0  0  0  # atno 4297 bound_to 1298
    3.8684   -8.5999    3.8880 LP  0  0  0  0  0  0  0  0  0  0  0  0  # atno 4298 bound_to 1298
    1.5739   -7.9228    7.1513 LP  0  0  0  0  0  0  0  0  0  0  0  0  # atno 4299 bound_to 2456
    0.3419   -8.8649    7.6623 LP  0  0  0  0  0  0  0  0  0  0  0  0  # atno 4300 bound_to 2456
    2.0299   -7.8779    5.9461 LP  0  0  0  0  0  0  0  0  0  0  0  0  # atno 4301 bound_to 2510
    2.6619   -7.8634    4.4405 LP  0  0  0  0  0  0  0  0  0  0  0  0  # atno 4302 bound_to 2510
   -3.4570  -16.8505   13.2092 LP  0  0  0  0  0  0  0  0  0  0  0  0  # atno 4306 bound_to 3712
   -2.6462  -18.1967   13.6531 LP  0  0  0  0  0  0  0  0  0  0  0  0  # atno 4307 bound_to 3712
    1.4783  -20.4698    9.3917 LP  0  0  0  0  0  0  0  0  0  0  0  0  # atno 4314 bound_to 3832
    2.2730  -19.6873    8.1989 LP  0  0  0  0  0  0  0  0  0  0  0  0  # atno 4315 bound_to 3832
   -3.9363  -23.1538   10.9659 LP  0  0  0  0  0  0  0  0  0  0  0  0  # atno 4318 bound_to 3762
   -5.2812  -22.7719   10.1223 LP  0  0  0  0  0  0  0  0  0  0  0  0  # atno 4319 bound_to 3762
   -4.1264   -4.8063    7.7819 LP  0  0  0  0  0  0  0  0  0  0  0  0  # atno 4320 bound_to 2467
   -4.0810   -5.3554    9.3191 LP  0  0  0  0  0  0  0  0  0  0  0  0  # atno 4321 bound_to 2467

> <Gold.Score>
     Score     S(PLP)   S(hbond)     S(cho)   S(metal)  DE(clash)   DE(tors)     intcor
     40.25     -40.57       0.00       0.00       0.00       0.00       0.46       0.59

> <Gold.PLP.Fitness>
40.2456

> <Gold.PLP.PLP>
-40.5722

> <Gold.PLP.part.hbond>
0.0000

> <Gold.PLP.part.metal>
0.0000

> <Gold.PLP.part.buried>
-3.5384

> <Gold.PLP.part.nonpolar>
-38.3754

> <Gold.PLP.part.repulsive>
0.0000

> <Gold.PLP.ligand.clash>
0.0000

> <Gold.PLP.ligand.torsion>
0.4567

> <Gold.PLP.Chemscore.Hbond>
0.0000

> <Gold.PLP.Chemscore.CHOScore>
0.0000

> <Gold.PLP.Chemscore.Metal>
0.0000

> <Gold.PLP.Chemscore.Internal.Correction>
0.5868

