#       Name:                EN300-110418_i004
#       Creating user name   fsindt
#       Creation time:       Tue Feb 28 15:24:58 2023


#       File generated by GOLD software.
#

@<TRIPOS>MOLECULE
EN300-110418_i004
    34    35     1
SMALL
USER_CHARGES


@<TRIPOS>ATOM
      1 C1           1.2870   1.3918  -1.3106 C.3            1 <1>                0.0000
      2 N2           1.8609   0.0846  -0.9644 N.4            1 <1>                1.0000
      3 C3           3.2803   0.2491  -0.5849 C.3            1 <1>                0.0000
      4 C4           3.5083  -0.7805   0.5498 C.3            1 <1>                0.0000
      5 C5           2.1588  -0.7107   1.3120 C.3            1 <1>                0.0000
      6 C6           1.1320  -0.4895   0.1815 C.3            1 <1>                0.0000
      7 C7           0.0624   0.4678   0.6404 C.2            1 <1>                0.0000
      8 O8           0.3648   1.5820   1.0122 O.2            1 <1>                0.0000
      9 N9          -1.2301   0.0859   0.6377 N.am           1 <1>                0.0000
     10 C10         -2.2987   1.0357   0.9830 C.3            1 <1>                0.0000
     11 C11         -3.3604   0.9963  -0.1213 C.3            1 <1>                0.0000
     12 N12         -3.8026  -0.3901  -0.3219 N.3            1 <1>                0.0000
     13 C13         -2.6982  -1.2396  -0.7874 C.3            1 <1>                0.0000
     14 C14         -1.6098  -1.2902   0.2837 C.3            1 <1>                0.0000
     15 H15          1.7498   1.7609  -2.2259 H              1 <1>                0.0000
     16 H16          0.2127   1.2881  -1.4630 H              1 <1>                0.0000
     17 H17          1.4726   2.0963  -0.4999 H              1 <1>                0.0000
     18 H18          3.9280   0.0284  -1.4334 H              1 <1>                0.0000
     19 H19          3.4611   1.2607  -0.2214 H              1 <1>                0.0000
     20 H20          3.6763  -1.7780   0.1439 H              1 <1>                0.0000
     21 H21          4.3354  -0.4773   1.1917 H              1 <1>                0.0000
     22 H22          1.9620  -1.6473   1.8336 H              1 <1>                0.0000
     23 H23          2.1523   0.1281   2.0081 H              1 <1>                0.0000
     24 H24          0.6835  -1.4412  -0.1035 H              1 <1>                0.0000
     25 H25         -2.7487   0.7507   1.9339 H              1 <1>                0.0000
     26 H26         -1.8848   2.0413   1.0573 H              1 <1>                0.0000
     27 H27         -4.2118   1.6111   0.1706 H              1 <1>                0.0000
     28 H28         -2.9351   1.3802  -1.0486 H              1 <1>                0.0000
     29 H29         -3.0695  -2.2464  -0.9785 H              1 <1>                0.0000
     30 H30         -2.2822  -0.8246  -1.7054 H              1 <1>                0.0000
     31 H31         -0.7411  -1.8238  -0.1020 H              1 <1>                0.0000
     32 H32         -1.9913  -1.7979   1.1696 H              1 <1>                0.0000
     33 H33         -4.2158  -0.7631   0.5197 H              1 <1>                0.0000
     34 H34          1.7908  -0.5380  -1.7553 H              1 <1>                0.0000
@<TRIPOS>BOND
    1    1    2 1     
    2    1   15 1     
    3    1   16 1     
    4    1   17 1     
    5    2    3 1     
    6    2    6 1     
    7    2   34 1     
    8    3    4 1     
    9    3   18 1     
   10    3   19 1     
   11    4    5 1     
   12    4   20 1     
   13    4   21 1     
   14    5    6 1     
   15    5   22 1     
   16    5   23 1     
   17    6    7 1     
   18    6   24 1     
   19    7    8 2     
   20    7    9 am    
   21    9   10 1     
   22    9   14 1     
   23   10   11 1     
   24   10   25 1     
   25   10   26 1     
   26   11   12 1     
   27   11   27 1     
   28   11   28 1     
   29   12   13 1     
   30   12   33 1     
   31   13   14 1     
   32   13   29 1     
   33   13   30 1     
   34   14   31 1     
   35   14   32 1     
@<TRIPOS>SUBSTRUCTURE
      1 ****           1
@<TRIPOS>SET
DONOR_HYDROGENS      STATIC     ATOMS    <user>   **** ""
2 34 33
ATOM$RED        STATIC     ATOMS    COLORGROUP SYSTEM
2 34 33
