#       Name:                EN300-110418_i004
#       Creating user name   fsindt
#       Creation time:       Tue Feb 28 15:25:09 2023


#       File generated by GOLD software.
#

@<TRIPOS>MOLECULE
EN300-110418_i004|amine_7|mol2|6400|dock20
    34    35     1
SMALL
USER_CHARGES


@<TRIPOS>ATOM
      1 C1           0.8294 -20.3453  15.7012 C.3            1 <1>                0.0000
      2 N2           1.2728 -21.1078  14.5264 N.4            1 <1>                1.0000
      3 C3           0.7308 -22.4817  14.5914 C.3            1 <1>                0.0000
      4 C4           0.4145 -22.8521  13.1209 C.3            1 <1>                0.0000
      5 C5          -0.1009 -21.5001  12.5612 C.3            1 <1>                0.0000
      6 C6           0.7721 -20.4631  13.2986 C.3            1 <1>                0.0000
      7 C7          -0.0565 -19.2558  13.6548 C.2            1 <1>                0.0000
      8 O8          -1.2642 -19.2968  13.5499 O.2            1 <1>                0.0000
      9 N9           0.5443 -18.1305  14.0898 N.am           1 <1>                0.0000
     10 C10          2.0107 -18.0235  14.1268 C.3            1 <1>                0.0000
     11 C11          2.4227 -16.7319  13.4126 C.3            1 <1>                0.0000
     12 N12          1.7020 -15.5972  14.0050 N.3            1 <1>                0.0000
     13 C13          0.2518 -15.7265  13.8097 C.3            1 <1>                0.0000
     14 C14         -0.2492 -16.9747  14.5345 C.3            1 <1>                0.0000
     15 H15          1.2944 -20.7559  16.5975 H              1 <1>                0.0000
     16 H16          1.1196 -19.3009  15.5872 H              1 <1>                0.0000
     17 H17         -0.2548 -20.4135  15.7905 H              1 <1>                0.0000
     18 H18          1.4746 -23.1640  15.0030 H              1 <1>                0.0000
     19 H19         -0.1785 -22.5030  15.1921 H              1 <1>                0.0000
     20 H20          1.3145 -23.1739  12.5970 H              1 <1>                0.0000
     21 H21         -0.3604 -23.6170  13.0690 H              1 <1>                0.0000
     22 H22          0.0591 -21.4427  11.4845 H              1 <1>                0.0000
     23 H23         -1.1543 -21.3591  12.8035 H              1 <1>                0.0000
     24 H24          1.6098 -20.1674  12.6670 H              1 <1>                0.0000
     25 H25          2.3496 -17.9934  15.1623 H              1 <1>                0.0000
     26 H26          2.4532 -18.8802  13.6185 H              1 <1>                0.0000
     27 H27          3.4961 -16.5802  13.5257 H              1 <1>                0.0000
     28 H28          2.1753 -16.8071  12.3537 H              1 <1>                0.0000
     29 H29         -0.2491 -14.8455  14.2110 H              1 <1>                0.0000
     30 H30          0.0347 -15.8156  12.7453 H              1 <1>                0.0000
     31 H31         -1.3008 -17.1378  14.2985 H              1 <1>                0.0000
     32 H32         -0.1279 -16.8469  15.6102 H              1 <1>                0.0000
     33 H33          1.9276 -15.4967  14.9833 H              1 <1>                0.0000
     34 H34          2.2810 -21.1411  14.5032 H              1 <1>                0.0000
@<TRIPOS>BOND
    1    1    2 1     
    2    1   15 1     
    3    1   16 1     
    4    1   17 1     
    5    2    3 1     
    6    2    6 1     
    7    2   34 1     
    8    3    4 1     
    9    3   18 1     
   10    3   19 1     
   11    4    5 1     
   12    4   20 1     
   13    4   21 1     
   14    5    6 1     
   15    5   22 1     
   16    5   23 1     
   17    6    7 1     
   18    6   24 1     
   19    7    8 2     
   20    7    9 am    
   21    9   10 1     
   22    9   14 1     
   23   10   11 1     
   24   10   25 1     
   25   10   26 1     
   26   11   12 1     
   27   11   27 1     
   28   11   28 1     
   29   12   13 1     
   30   12   33 1     
   31   13   14 1     
   32   13   29 1     
   33   13   30 1     
   34   14   31 1     
   35   14   32 1     
@<TRIPOS>SUBSTRUCTURE
      1 ****           1
@<TRIPOS>SET
DONOR_HYDROGENS      STATIC     ATOMS    <user>   **** ""
2 34 33
ATOM$RED        STATIC     ATOMS    COLORGROUP SYSTEM
2 34 33
@<TRIPOS>COMMENT
> <Gold.Version>
2022.2.0

> <Gold.Id.Protein>
3pbl|protein|mol2

> <Gold.Protein.RotatedTorsions>
[ 1303 1298 1297 1294 ] final  -54.19 input  179.99 | X-H torsion
[ 2461 2456 2455 2452 ] final  -18.50 input   30.03 | X-H torsion
[ 2515 2510 2509 2506 ] final  149.64 input  -89.99 | X-H torsion
[ 3721 3712 3711 3710 ] final   40.02 input -179.91 | X-H torsion
[ 3841 3832 3831 3830 ] final   13.01 input -179.91 | X-H torsion
[ 3767 3762 3761 3758 ] final   29.95 input  -89.99 | X-H torsion
[ 2472 2467 2466 2463 ] final  -40.75 input  -89.97 | X-H torsion

> <Gold.Protein.ActiveResidues>
 VAL82   VAL86   LEU89   PHE106  VAL107  ASP110  VAL111  MET112  CYS114  THR115 
 CYS181  SER182  ILE183  PHE188  VAL189  ILE190  SER192  SER193  SER196  TRP342 
 PHE345  PHE346  HIS349  VAL350  TYR365  THR369  GLY372  TYR373 

> <Gold.Protein.RotatedAtoms>
    3.4523   -9.0599    3.7780 H   0  0  0  0  0  0  0  0  0  0  0  0  # atno 1303 bound_to 1298
    0.7684   -8.1168    7.0640 H   0  0  0  0  0  0  0  0  0  0  0  0  # atno 2461 bound_to 2456
   -3.6403   -5.0766    8.6780 H   0  0  0  0  0  0  0  0  0  0  0  0  # atno 2472 bound_to 2467
    2.1422   -8.6376    6.0685 H   0  0  0  0  0  0  0  0  0  0  0  0  # atno 2515 bound_to 2510
   -2.5072  -18.0128   13.6526 H   0  0  0  0  0  0  0  0  0  0  0  0  # atno 3721 bound_to 3712
   -4.9834  -23.0563   10.0646 H   0  0  0  0  0  0  0  0  0  0  0  0  # atno 3767 bound_to 3762
    1.8639  -20.6282    9.6064 H   0  0  0  0  0  0  0  0  0  0  0  0  # atno 3841 bound_to 3832
    4.8219   -8.8019    4.6290 LP  0  0  0  0  0  0  0  0  0  0  0  0  # atno 4297 bound_to 1298
    4.0882  -10.2597    4.6848 LP  0  0  0  0  0  0  0  0  0  0  0  0  # atno 4298 bound_to 1298
    0.8083   -9.2649    8.2248 LP  0  0  0  0  0  0  0  0  0  0  0  0  # atno 4299 bound_to 2456
    2.1609   -8.4263    7.8592 LP  0  0  0  0  0  0  0  0  0  0  0  0  # atno 4300 bound_to 2456
    2.3343   -7.4246    4.9927 LP  0  0  0  0  0  0  0  0  0  0  0  0  # atno 4301 bound_to 2510
    2.8203   -8.9368    4.6137 LP  0  0  0  0  0  0  0  0  0  0  0  0  # atno 4302 bound_to 2510
   -3.1505  -17.1336   14.8319 LP  0  0  0  0  0  0  0  0  0  0  0  0  # atno 4306 bound_to 3712
   -3.4826  -16.7966   13.2690 LP  0  0  0  0  0  0  0  0  0  0  0  0  # atno 4307 bound_to 3712
    1.9535  -19.6343    8.3493 LP  0  0  0  0  0  0  0  0  0  0  0  0  # atno 4314 bound_to 3832
    3.1228  -20.7423    8.6174 LP  0  0  0  0  0  0  0  0  0  0  0  0  # atno 4315 bound_to 3832
   -5.2247  -21.9206   11.2130 LP  0  0  0  0  0  0  0  0  0  0  0  0  # atno 4318 bound_to 3762
   -3.9193  -22.8984   11.2932 LP  0  0  0  0  0  0  0  0  0  0  0  0  # atno 4319 bound_to 3762
   -5.1290   -5.4424    9.2407 LP  0  0  0  0  0  0  0  0  0  0  0  0  # atno 4320 bound_to 2467
   -4.9474   -4.8745    7.7204 LP  0  0  0  0  0  0  0  0  0  0  0  0  # atno 4321 bound_to 2467

> <Gold.Score>
     Score     S(PLP)   S(hbond)     S(cho)   S(metal)  DE(clash)   DE(tors)     intcor
     35.21     -32.22       1.00       0.00       0.00       0.00       0.30       0.59

> <Gold.PLP.Fitness>
35.2091

> <Gold.PLP.PLP>
-32.2242

> <Gold.PLP.part.hbond>
-2.0000

> <Gold.PLP.part.metal>
0.0000

> <Gold.PLP.part.buried>
-2.0951

> <Gold.PLP.part.nonpolar>
-28.6496

> <Gold.PLP.part.repulsive>
0.0000

> <Gold.PLP.ligand.clash>
0.0000

> <Gold.PLP.ligand.torsion>
0.3010

> <Gold.PLP.Chemscore.Hbond>
1.0000

> <Gold.PLP.Chemscore.CHOScore>
0.0000

> <Gold.PLP.Chemscore.Metal>
0.0000

> <Gold.Chemscore.Hbonds>
donor molecule, donor type, donor heavy atom, donor atom, acceptor molecule, acceptor atom, score
      P1  H  3712  3721       L1     8  1.00

> <Gold.PLP.Chemscore.Internal.Correction>
0.5868

