#       Name:                EN300-110418_i004
#       Creating user name   fsindt
#       Creation time:       Tue Feb 28 15:25:07 2023


#       File generated by GOLD software.
#

@<TRIPOS>MOLECULE
EN300-110418_i004|amine_7|mol2|6400|dock16
    34    35     1
SMALL
USER_CHARGES


@<TRIPOS>ATOM
      1 C1           1.1316 -21.3009  12.8952 C.3            1 <1>                0.0000
      2 N2          -0.0636 -22.1090  12.6189 N.4            1 <1>                1.0000
      3 C3          -0.1631 -23.2043  13.6069 C.3            1 <1>                0.0000
      4 C4          -1.6813 -23.3624  13.8707 C.3            1 <1>                0.0000
      5 C5          -2.1630 -21.8884  13.8219 C.3            1 <1>                0.0000
      6 C6          -1.2685 -21.2664  12.7291 C.3            1 <1>                0.0000
      7 C7          -0.8795 -19.8643  13.1216 C.2            1 <1>                0.0000
      8 O8          -1.0829 -19.4724  14.2512 O.2            1 <1>                0.0000
      9 N9          -0.3056 -19.0461  12.2174 N.am           1 <1>                0.0000
     10 C10         -0.1435 -19.4641  10.8167 C.3            1 <1>                0.0000
     11 C11         -0.7122 -18.3658   9.9120 C.3            1 <1>                0.0000
     12 N12         -0.0861 -17.0815  10.2534 N.3            1 <1>                0.0000
     13 C13         -0.4060 -16.6821  11.6304 C.3            1 <1>                0.0000
     14 C14          0.1698 -17.7091  12.6041 C.3            1 <1>                0.0000
     15 H15          2.0247 -21.8951  12.7013 H              1 <1>                0.0000
     16 H16          1.1330 -20.4220  12.2506 H              1 <1>                0.0000
     17 H17          1.1242 -20.9862  13.9387 H              1 <1>                0.0000
     18 H18          0.2485 -24.1257  13.1948 H              1 <1>                0.0000
     19 H19          0.3557 -22.9339  14.5267 H              1 <1>                0.0000
     20 H20         -2.1543 -23.9539  13.0868 H              1 <1>                0.0000
     21 H21         -1.8635 -23.8004  14.8521 H              1 <1>                0.0000
     22 H22         -3.2136 -21.8357  13.5364 H              1 <1>                0.0000
     23 H23         -1.9980 -21.3971  14.7809 H              1 <1>                0.0000
     24 H24         -1.8002 -21.2534  11.7777 H              1 <1>                0.0000
     25 H25          0.9145 -19.6076  10.5975 H              1 <1>                0.0000
     26 H26         -0.6849 -20.3948  10.6473 H              1 <1>                0.0000
     27 H27         -0.5019 -18.6075   8.8702 H              1 <1>                0.0000
     28 H28         -1.7900 -18.2954  10.0590 H              1 <1>                0.0000
     29 H29          0.0265 -15.7027  11.8347 H              1 <1>                0.0000
     30 H30         -1.4880 -16.6351  11.7534 H              1 <1>                0.0000
     31 H31         -0.1617 -17.4794  13.6168 H              1 <1>                0.0000
     32 H32          1.2586 -17.6867  12.5583 H              1 <1>                0.0000
     33 H33          0.9120 -17.1164  10.1096 H              1 <1>                0.0000
     34 H34         -0.0056 -22.4951  11.6885 H              1 <1>                0.0000
@<TRIPOS>BOND
    1    1    2 1     
    2    1   15 1     
    3    1   16 1     
    4    1   17 1     
    5    2    3 1     
    6    2    6 1     
    7    2   34 1     
    8    3    4 1     
    9    3   18 1     
   10    3   19 1     
   11    4    5 1     
   12    4   20 1     
   13    4   21 1     
   14    5    6 1     
   15    5   22 1     
   16    5   23 1     
   17    6    7 1     
   18    6   24 1     
   19    7    8 2     
   20    7    9 am    
   21    9   10 1     
   22    9   14 1     
   23   10   11 1     
   24   10   25 1     
   25   10   26 1     
   26   11   12 1     
   27   11   27 1     
   28   11   28 1     
   29   12   13 1     
   30   12   33 1     
   31   13   14 1     
   32   13   29 1     
   33   13   30 1     
   34   14   31 1     
   35   14   32 1     
@<TRIPOS>SUBSTRUCTURE
      1 ****           1
@<TRIPOS>SET
DONOR_HYDROGENS      STATIC     ATOMS    <user>   **** ""
2 34 33
ATOM$RED        STATIC     ATOMS    COLORGROUP SYSTEM
2 34 33
@<TRIPOS>COMMENT
> <Gold.Version>
2022.2.0

> <Gold.Id.Protein>
3pbl|protein|mol2

> <Gold.Protein.RotatedTorsions>
[ 1303 1298 1297 1294 ] final  154.30 input  179.99 | X-H torsion
[ 2461 2456 2455 2452 ] final  139.10 input   30.03 | X-H torsion
[ 2515 2510 2509 2506 ] final -107.71 input  -89.99 | X-H torsion
[ 3721 3712 3711 3710 ] final   21.94 input -179.91 | X-H torsion
[ 3841 3832 3831 3830 ] final  157.77 input -179.91 | X-H torsion
[ 3767 3762 3761 3758 ] final  -51.77 input  -89.99 | X-H torsion
[ 2472 2467 2466 2463 ] final   32.69 input  -89.97 | X-H torsion

> <Gold.Protein.ActiveResidues>
 VAL82   VAL86   LEU89   PHE106  VAL107  ASP110  VAL111  MET112  CYS114  THR115 
 CYS181  SER182  ILE183  PHE188  VAL189  ILE190  SER192  SER193  SER196  TRP342 
 PHE345  PHE346  HIS349  VAL350  TYR365  THR369  GLY372  TYR373 

> <Gold.Protein.RotatedAtoms>
    4.9098   -9.2480    4.8638 H   0  0  0  0  0  0  0  0  0  0  0  0  # atno 1303 bound_to 1298
    1.9851   -8.8674    8.2385 H   0  0  0  0  0  0  0  0  0  0  0  0  # atno 2461 bound_to 2456
   -4.2061   -4.8017    7.7425 H   0  0  0  0  0  0  0  0  0  0  0  0  # atno 2472 bound_to 2467
    2.7695   -9.1179    4.8271 H   0  0  0  0  0  0  0  0  0  0  0  0  # atno 2515 bound_to 2510
   -2.4721  -18.0322   13.9218 H   0  0  0  0  0  0  0  0  0  0  0  0  # atno 3721 bound_to 3712
   -5.4943  -22.1280   10.6969 H   0  0  0  0  0  0  0  0  0  0  0  0  # atno 3767 bound_to 3762
    3.0997  -20.3134    8.5593 H   0  0  0  0  0  0  0  0  0  0  0  0  # atno 3841 bound_to 3832
    3.6798  -10.2070    4.3805 LP  0  0  0  0  0  0  0  0  0  0  0  0  # atno 4297 bound_to 1298
    3.7723   -8.6664    3.8470 LP  0  0  0  0  0  0  0  0  0  0  0  0  # atno 4298 bound_to 1298
    1.3443   -7.9224    7.0708 LP  0  0  0  0  0  0  0  0  0  0  0  0  # atno 4299 bound_to 2456
    0.4087   -9.0184    7.8390 LP  0  0  0  0  0  0  0  0  0  0  0  0  # atno 4300 bound_to 2456
    2.0715   -8.3634    6.0956 LP  0  0  0  0  0  0  0  0  0  0  0  0  # atno 4301 bound_to 2510
    2.4556   -7.5174    4.7528 LP  0  0  0  0  0  0  0  0  0  0  0  0  # atno 4302 bound_to 2510
   -3.2951  -16.9003   14.7087 LP  0  0  0  0  0  0  0  0  0  0  0  0  # atno 4306 bound_to 3712
   -3.3784  -17.0075   13.0814 LP  0  0  0  0  0  0  0  0  0  0  0  0  # atno 4307 bound_to 3712
    2.0388  -21.0184    9.5358 LP  0  0  0  0  0  0  0  0  0  0  0  0  # atno 4314 bound_to 3832
    1.6099  -19.7219    8.6405 LP  0  0  0  0  0  0  0  0  0  0  0  0  # atno 4315 bound_to 3832
   -4.1753  -22.4332   11.6101 LP  0  0  0  0  0  0  0  0  0  0  0  0  # atno 4318 bound_to 3762
   -4.4580  -23.3136   10.2641 LP  0  0  0  0  0  0  0  0  0  0  0  0  # atno 4319 bound_to 3762
   -4.0077   -5.3312    9.2744 LP  0  0  0  0  0  0  0  0  0  0  0  0  # atno 4320 bound_to 2467
   -5.5031   -5.2606    8.6221 LP  0  0  0  0  0  0  0  0  0  0  0  0  # atno 4321 bound_to 2467

> <Gold.Score>
     Score     S(PLP)   S(hbond)     S(cho)   S(metal)  DE(clash)   DE(tors)     intcor
     35.67     -29.71       2.00       0.00       0.00       0.00       0.31       0.59

> <Gold.PLP.Fitness>
35.6716

> <Gold.PLP.PLP>
-29.7097

> <Gold.PLP.part.hbond>
-2.0000

> <Gold.PLP.part.metal>
0.0000

> <Gold.PLP.part.buried>
-3.7499

> <Gold.PLP.part.nonpolar>
-24.8794

> <Gold.PLP.part.repulsive>
0.0000

> <Gold.PLP.ligand.clash>
0.0000

> <Gold.PLP.ligand.torsion>
0.3124

> <Gold.PLP.Chemscore.Hbond>
2.0000

> <Gold.PLP.Chemscore.CHOScore>
0.0000

> <Gold.PLP.Chemscore.Metal>
0.0000

> <Gold.Chemscore.Hbonds>
donor molecule, donor type, donor heavy atom, donor atom, acceptor molecule, acceptor atom, score
      L1  H    12    33       P1  1227  1.00
      P1  H  3712  3721       L1     8  1.00

> <Gold.PLP.Chemscore.Internal.Correction>
0.5868

