#       Name:                EN300-110418_i004
#       Creating user name   fsindt
#       Creation time:       Tue Feb 28 15:25:09 2023


#       File generated by GOLD software.
#

@<TRIPOS>MOLECULE
EN300-110418_i004|amine_7|mol2|6400|dock19
    34    35     1
SMALL
USER_CHARGES


@<TRIPOS>ATOM
      1 C1           2.4838 -15.1920  11.6791 C.3            1 <1>                0.0000
      2 N2           2.1487 -16.5933  11.9657 N.4            1 <1>                1.0000
      3 C3           2.9437 -17.0693  13.1178 C.3            1 <1>                0.0000
      4 C4           1.9930 -18.0184  13.8892 C.3            1 <1>                0.0000
      5 C5           0.6296 -17.2962  13.7268 C.3            1 <1>                0.0000
      6 C6           0.7181 -16.7019  12.3055 C.3            1 <1>                0.0000
      7 C7           0.0801 -15.3368  12.2798 C.2            1 <1>                0.0000
      8 O8          -0.2049 -14.7811  13.3195 O.2            1 <1>                0.0000
      9 N9          -0.1739 -14.7337  11.1016 N.am           1 <1>                0.0000
     10 C10         -0.7005 -13.3612  11.0542 C.3            1 <1>                0.0000
     11 C11          0.1774 -12.5356  10.1076 C.3            1 <1>                0.0000
     12 N12          0.2622 -13.2136   8.8072 N.3            1 <1>                0.0000
     13 C13          0.9155 -14.5236   8.9309 C.3            1 <1>                0.0000
     14 C14          0.0736 -15.4284   9.8292 C.3            1 <1>                0.0000
     15 H15          3.5103 -15.1305  11.3176 H              1 <1>                0.0000
     16 H16          1.8067 -14.8050  10.9176 H              1 <1>                0.0000
     17 H17          2.3830 -14.6009  12.5892 H              1 <1>                0.0000
     18 H18          3.8240 -17.6119  12.7731 H              1 <1>                0.0000
     19 H19          3.2368 -16.2305  13.7490 H              1 <1>                0.0000
     20 H20          1.9690 -19.0060  13.4286 H              1 <1>                0.0000
     21 H21          2.2765 -18.0859  14.9395 H              1 <1>                0.0000
     22 H22         -0.1937 -18.0070  13.7968 H              1 <1>                0.0000
     23 H23          0.5216 -16.5053  14.4692 H              1 <1>                0.0000
     24 H24          0.2175 -17.3610  11.5962 H              1 <1>                0.0000
     25 H25         -1.7256 -13.3749  10.6843 H              1 <1>                0.0000
     26 H26         -0.6742 -12.9242  12.0524 H              1 <1>                0.0000
     27 H27         -0.2613 -11.5467   9.9743 H              1 <1>                0.0000
     28 H28          1.1765 -12.4364  10.5319 H              1 <1>                0.0000
     29 H29          1.0120 -14.9764   7.9441 H              1 <1>                0.0000
     30 H30          1.9043 -14.3966   9.3715 H              1 <1>                0.0000
     31 H31          0.6093 -16.3591  10.0164 H              1 <1>                0.0000
     32 H32         -0.8788 -15.6420   9.3441 H              1 <1>                0.0000
     33 H33         -0.6503 -13.3030   8.3859 H              1 <1>                0.0000
     34 H34          2.3479 -17.1630  11.1571 H              1 <1>                0.0000
@<TRIPOS>BOND
    1    1    2 1     
    2    1   15 1     
    3    1   16 1     
    4    1   17 1     
    5    2    3 1     
    6    2    6 1     
    7    2   34 1     
    8    3    4 1     
    9    3   18 1     
   10    3   19 1     
   11    4    5 1     
   12    4   20 1     
   13    4   21 1     
   14    5    6 1     
   15    5   22 1     
   16    5   23 1     
   17    6    7 1     
   18    6   24 1     
   19    7    8 2     
   20    7    9 am    
   21    9   10 1     
   22    9   14 1     
   23   10   11 1     
   24   10   25 1     
   25   10   26 1     
   26   11   12 1     
   27   11   27 1     
   28   11   28 1     
   29   12   13 1     
   30   12   33 1     
   31   13   14 1     
   32   13   29 1     
   33   13   30 1     
   34   14   31 1     
   35   14   32 1     
@<TRIPOS>SUBSTRUCTURE
      1 ****           1
@<TRIPOS>SET
DONOR_HYDROGENS      STATIC     ATOMS    <user>   **** ""
2 34 33
ATOM$RED        STATIC     ATOMS    COLORGROUP SYSTEM
2 34 33
@<TRIPOS>COMMENT
> <Gold.Version>
2022.2.0

> <Gold.Id.Protein>
3pbl|protein|mol2

> <Gold.Protein.RotatedTorsions>
[ 1303 1298 1297 1294 ] final   58.87 input  179.99 | X-H torsion
[ 2461 2456 2455 2452 ] final  -71.17 input   30.03 | X-H torsion
[ 2515 2510 2509 2506 ] final -112.47 input  -89.99 | X-H torsion
[ 3721 3712 3711 3710 ] final   -1.30 input -179.91 | X-H torsion
[ 3841 3832 3831 3830 ] final   19.21 input -179.91 | X-H torsion
[ 3767 3762 3761 3758 ] final  -94.60 input  -89.99 | X-H torsion
[ 2472 2467 2466 2463 ] final   34.57 input  -89.97 | X-H torsion

> <Gold.Protein.ActiveResidues>
 VAL82   VAL86   LEU89   PHE106  VAL107  ASP110  VAL111  MET112  CYS114  THR115 
 CYS181  SER182  ILE183  PHE188  VAL189  ILE190  SER192  SER193  SER196  TRP342 
 PHE345  PHE346  HIS349  VAL350  TYR365  THR369  GLY372  TYR373 

> <Gold.Protein.RotatedAtoms>
    3.9926  -10.2709    4.6234 H   0  0  0  0  0  0  0  0  0  0  0  0  # atno 1303 bound_to 1298
    0.3352   -8.6932    7.4885 H   0  0  0  0  0  0  0  0  0  0  0  0  # atno 2461 bound_to 2456
   -4.2346   -4.8005    7.7306 H   0  0  0  0  0  0  0  0  0  0  0  0  # atno 2472 bound_to 2467
    2.7500   -9.1557    4.8927 H   0  0  0  0  0  0  0  0  0  0  0  0  # atno 2515 bound_to 2510
   -2.4898  -17.9489   14.2602 H   0  0  0  0  0  0  0  0  0  0  0  0  # atno 3721 bound_to 3712
   -5.1739  -21.9149   11.2679 H   0  0  0  0  0  0  0  0  0  0  0  0  # atno 3767 bound_to 3762
    1.9336  -20.6895    9.6181 H   0  0  0  0  0  0  0  0  0  0  0  0  # atno 3841 bound_to 3832
    3.5085   -8.9605    3.7779 LP  0  0  0  0  0  0  0  0  0  0  0  0  # atno 4297 bound_to 1298
    4.8610   -8.8896    4.6902 LP  0  0  0  0  0  0  0  0  0  0  0  0  # atno 4298 bound_to 1298
    1.6198   -9.1463    8.3896 LP  0  0  0  0  0  0  0  0  0  0  0  0  # atno 4299 bound_to 2456
    1.7825   -7.9687    7.2700 LP  0  0  0  0  0  0  0  0  0  0  0  0  # atno 4300 bound_to 2456
    2.0577   -8.2867    6.0891 LP  0  0  0  0  0  0  0  0  0  0  0  0  # atno 4301 bound_to 2510
    2.4889   -7.5563    4.6937 LP  0  0  0  0  0  0  0  0  0  0  0  0  # atno 4302 bound_to 2510
   -3.4491  -16.6737   14.4372 LP  0  0  0  0  0  0  0  0  0  0  0  0  # atno 4306 bound_to 3712
   -3.2041  -17.3302   12.9622 LP  0  0  0  0  0  0  0  0  0  0  0  0  # atno 4307 bound_to 3712
    1.8674  -19.6388    8.4066 LP  0  0  0  0  0  0  0  0  0  0  0  0  # atno 4314 bound_to 3832
    3.1283  -20.6670    8.5466 LP  0  0  0  0  0  0  0  0  0  0  0  0  # atno 4315 bound_to 3832
   -3.9108  -22.9495   11.2393 LP  0  0  0  0  0  0  0  0  0  0  0  0  # atno 4318 bound_to 3762
   -5.0428  -23.0104   10.0640 LP  0  0  0  0  0  0  0  0  0  0  0  0  # atno 4319 bound_to 3762
   -3.9834   -5.3224    9.2573 LP  0  0  0  0  0  0  0  0  0  0  0  0  # atno 4320 bound_to 2467
   -5.4988   -5.2706    8.6511 LP  0  0  0  0  0  0  0  0  0  0  0  0  # atno 4321 bound_to 2467

> <Gold.Score>
     Score     S(PLP)   S(hbond)     S(cho)   S(metal)  DE(clash)   DE(tors)     intcor
     37.62     -31.66       2.00       0.00       0.00       0.00       0.31       0.59

> <Gold.PLP.Fitness>
37.6199

> <Gold.PLP.PLP>
-31.6580

> <Gold.PLP.part.hbond>
-1.0000

> <Gold.PLP.part.metal>
0.0000

> <Gold.PLP.part.buried>
-1.4784

> <Gold.PLP.part.nonpolar>
-30.2660

> <Gold.PLP.part.repulsive>
0.1024

> <Gold.PLP.ligand.clash>
0.0000

> <Gold.PLP.ligand.torsion>
0.3124

> <Gold.PLP.Chemscore.Hbond>
2.0000

> <Gold.PLP.Chemscore.CHOScore>
0.0000

> <Gold.PLP.Chemscore.Metal>
0.0000

> <Gold.Chemscore.Hbonds>
donor molecule, donor type, donor heavy atom, donor atom, acceptor molecule, acceptor atom, score
      L1  H     2    34       P1  1227  2.00

> <Gold.PLP.Chemscore.Internal.Correction>
0.5868

