#       Name:                EN300-110418_i004
#       Creating user name   fsindt
#       Creation time:       Tue Feb 28 15:25:05 2023


#       File generated by GOLD software.
#

@<TRIPOS>MOLECULE
EN300-110418_i004|amine_7|mol2|6400|dock13
    34    35     1
SMALL
USER_CHARGES


@<TRIPOS>ATOM
      1 C1          -0.6732 -18.4220  11.5411 C.3            1 <1>                0.0000
      2 N2           0.5030 -17.5502  11.6616 N.4            1 <1>                1.0000
      3 C3           0.1210 -16.1545  11.3585 C.3            1 <1>                0.0000
      4 C4           0.9730 -15.2928  12.3235 C.3            1 <1>                0.0000
      5 C5           0.9802 -16.1699  13.6032 C.3            1 <1>                0.0000
      6 C6           1.0228 -17.6060  13.0402 C.3            1 <1>                0.0000
      7 C7           0.1570 -18.5111  13.8783 C.2            1 <1>                0.0000
      8 O8          -0.6006 -18.0369  14.6982 O.2            1 <1>                0.0000
      9 N9           0.2246 -19.8474  13.7168 N.am           1 <1>                0.0000
     10 C10         -0.6830 -20.7434  14.4494 C.3            1 <1>                0.0000
     11 C11         -1.3417 -21.6957  13.4457 C.3            1 <1>                0.0000
     12 N12         -0.3001 -22.3726  12.6615 N.3            1 <1>                0.0000
     13 C13          0.4752 -21.4125  11.8645 C.3            1 <1>                0.0000
     14 C14          1.2042 -20.4482  12.7988 C.3            1 <1>                0.0000
     15 H15         -0.9855 -18.4687  10.4978 H              1 <1>                0.0000
     16 H16         -0.4206 -19.4233  11.8898 H              1 <1>                0.0000
     17 H17         -1.4863 -18.0209  12.1461 H              1 <1>                0.0000
     18 H18          0.3591 -15.9122  10.3228 H              1 <1>                0.0000
     19 H19         -0.9410 -16.0016  11.5504 H              1 <1>                0.0000
     20 H20          1.9831 -15.1572  11.9374 H              1 <1>                0.0000
     21 H21          0.4962 -14.3309  12.5122 H              1 <1>                0.0000
     22 H22          1.8655 -15.9656  14.2054 H              1 <1>                0.0000
     23 H23          0.0721 -16.0106  14.1848 H              1 <1>                0.0000
     24 H24          2.0495 -17.9719  13.0349 H              1 <1>                0.0000
     25 H25         -0.1173 -21.3181  15.1825 H              1 <1>                0.0000
     26 H26         -1.4498 -20.1552  14.9536 H              1 <1>                0.0000
     27 H27         -1.9329 -22.4377  13.9824 H              1 <1>                0.0000
     28 H28         -1.9894 -21.1285  12.7772 H              1 <1>                0.0000
     29 H29          1.2017 -21.9493  11.2545 H              1 <1>                0.0000
     30 H30         -0.1978 -20.8493  11.2180 H              1 <1>                0.0000
     31 H31          1.6873 -19.6660  12.2131 H              1 <1>                0.0000
     32 H32          1.9520 -20.9923  13.3756 H              1 <1>                0.0000
     33 H33          0.3037 -22.9186  13.2577 H              1 <1>                0.0000
     34 H34          1.2187 -17.8537  11.0184 H              1 <1>                0.0000
@<TRIPOS>BOND
    1    1    2 1     
    2    1   15 1     
    3    1   16 1     
    4    1   17 1     
    5    2    3 1     
    6    2    6 1     
    7    2   34 1     
    8    3    4 1     
    9    3   18 1     
   10    3   19 1     
   11    4    5 1     
   12    4   20 1     
   13    4   21 1     
   14    5    6 1     
   15    5   22 1     
   16    5   23 1     
   17    6    7 1     
   18    6   24 1     
   19    7    8 2     
   20    7    9 am    
   21    9   10 1     
   22    9   14 1     
   23   10   11 1     
   24   10   25 1     
   25   10   26 1     
   26   11   12 1     
   27   11   27 1     
   28   11   28 1     
   29   12   13 1     
   30   12   33 1     
   31   13   14 1     
   32   13   29 1     
   33   13   30 1     
   34   14   31 1     
   35   14   32 1     
@<TRIPOS>SUBSTRUCTURE
      1 ****           1
@<TRIPOS>SET
DONOR_HYDROGENS      STATIC     ATOMS    <user>   **** ""
2 34 33
ATOM$RED        STATIC     ATOMS    COLORGROUP SYSTEM
2 34 33
@<TRIPOS>COMMENT
> <Gold.Version>
2022.2.0

> <Gold.Id.Protein>
3pbl|protein|mol2

> <Gold.Protein.RotatedTorsions>
[ 1303 1298 1297 1294 ] final  -58.97 input  179.99 | X-H torsion
[ 2461 2456 2455 2452 ] final   75.31 input   30.03 | X-H torsion
[ 2515 2510 2509 2506 ] final   47.71 input  -89.99 | X-H torsion
[ 3721 3712 3711 3710 ] final    2.84 input -179.91 | X-H torsion
[ 3841 3832 3831 3830 ] final  158.75 input -179.91 | X-H torsion
[ 3767 3762 3761 3758 ] final -115.31 input  -89.99 | X-H torsion
[ 2472 2467 2466 2463 ] final  -66.12 input  -89.97 | X-H torsion

> <Gold.Protein.ActiveResidues>
 VAL82   VAL86   LEU89   PHE106  VAL107  ASP110  VAL111  MET112  CYS114  THR115 
 CYS181  SER182  ILE183  PHE188  VAL189  ILE190  SER192  SER193  SER196  TRP342 
 PHE345  PHE346  HIS349  VAL350  TYR365  THR369  GLY372  TYR373 

> <Gold.Protein.RotatedAtoms>
    3.4899   -8.9909    3.7774 H   0  0  0  0  0  0  0  0  0  0  0  0  # atno 1303 bound_to 1298
    2.0571   -8.1518    7.5488 H   0  0  0  0  0  0  0  0  0  0  0  0  # atno 2461 bound_to 2456
   -3.7752   -5.2224    9.0415 H   0  0  0  0  0  0  0  0  0  0  0  0  # atno 2472 bound_to 2467
    2.2179   -7.4162    5.2648 H   0  0  0  0  0  0  0  0  0  0  0  0  # atno 2515 bound_to 2510
   -2.4815  -17.9723   14.2028 H   0  0  0  0  0  0  0  0  0  0  0  0  # atno 3721 bound_to 3712
   -4.9128  -21.9483   11.4813 H   0  0  0  0  0  0  0  0  0  0  0  0  # atno 3767 bound_to 3762
    3.0957  -20.3017    8.5513 H   0  0  0  0  0  0  0  0  0  0  0  0  # atno 3841 bound_to 3832
    4.8500   -8.8616    4.6717 LP  0  0  0  0  0  0  0  0  0  0  0  0  # atno 4297 bound_to 1298
    4.0225  -10.2690    4.6428 LP  0  0  0  0  0  0  0  0  0  0  0  0  # atno 4298 bound_to 1298
    0.4729   -8.3805    7.2242 LP  0  0  0  0  0  0  0  0  0  0  0  0  # atno 4299 bound_to 2456
    1.2080   -9.2758    8.3751 LP  0  0  0  0  0  0  0  0  0  0  0  0  # atno 4300 bound_to 2456
    2.8356   -8.6898    4.4512 LP  0  0  0  0  0  0  0  0  0  0  0  0  # atno 4301 bound_to 2510
    2.2433   -8.8936    5.9592 LP  0  0  0  0  0  0  0  0  0  0  0  0  # atno 4302 bound_to 2510
   -3.4254  -16.7064   14.4933 LP  0  0  0  0  0  0  0  0  0  0  0  0  # atno 4306 bound_to 3712
   -3.2374  -17.2705   12.9724 LP  0  0  0  0  0  0  0  0  0  0  0  0  # atno 4307 bound_to 3712
    2.0531  -21.0258    9.5335 LP  0  0  0  0  0  0  0  0  0  0  0  0  # atno 4314 bound_to 3832
    1.6001  -19.7280    8.6520 LP  0  0  0  0  0  0  0  0  0  0  0  0  # atno 4315 bound_to 3832
   -3.9355  -23.1521   10.9688 LP  0  0  0  0  0  0  0  0  0  0  0  0  # atno 4318 bound_to 3762
   -5.2792  -22.7745   10.1212 LP  0  0  0  0  0  0  0  0  0  0  0  0  # atno 4319 bound_to 3762
   -5.3987   -5.3625    8.9367 LP  0  0  0  0  0  0  0  0  0  0  0  0  # atno 4320 bound_to 2467
   -4.5429   -4.8086    7.6610 LP  0  0  0  0  0  0  0  0  0  0  0  0  # atno 4321 bound_to 2467

> <Gold.Score>
     Score     S(PLP)   S(hbond)     S(cho)   S(metal)  DE(clash)   DE(tors)     intcor
     37.93     -28.94       3.00       0.00       0.00       0.00       0.30       0.59

> <Gold.PLP.Fitness>
37.9332

> <Gold.PLP.PLP>
-28.9407

> <Gold.PLP.part.hbond>
-2.0000

> <Gold.PLP.part.metal>
0.0000

> <Gold.PLP.part.buried>
-3.9526

> <Gold.PLP.part.nonpolar>
-23.8341

> <Gold.PLP.part.repulsive>
0.0075

> <Gold.PLP.ligand.clash>
0.0000

> <Gold.PLP.ligand.torsion>
0.2972

> <Gold.PLP.Chemscore.Hbond>
3.0000

> <Gold.PLP.Chemscore.CHOScore>
0.0000

> <Gold.PLP.Chemscore.Metal>
0.0000

> <Gold.Chemscore.Hbonds>
donor molecule, donor type, donor heavy atom, donor atom, acceptor molecule, acceptor atom, score
      L1  H     2    34       P1  1227  2.00
      P1  H  3712  3721       L1     8  1.00

> <Gold.PLP.Chemscore.Internal.Correction>
0.5868

