#       Name:                EN300-110418_i004
#       Creating user name   fsindt
#       Creation time:       Tue Feb 28 15:25:01 2023


#       File generated by GOLD software.
#

@<TRIPOS>MOLECULE
EN300-110418_i004|amine_7|mol2|6400|dock5
    34    35     1
SMALL
USER_CHARGES


@<TRIPOS>ATOM
      1 C1           0.7296 -10.5662  10.5625 C.3            1 <1>                0.0000
      2 N2          -0.6258 -10.9381  10.9899 N.4            1 <1>                1.0000
      3 C3          -1.4635  -9.7248  11.0992 C.3            1 <1>                0.0000
      4 C4          -2.8696 -10.1711  10.6264 C.3            1 <1>                0.0000
      5 C5          -2.5169 -11.1552   9.4801 C.3            1 <1>                0.0000
      6 C6          -1.2313 -11.8384   9.9916 C.3            1 <1>                0.0000
      7 C7          -0.2744 -12.0526   8.8472 C.2            1 <1>                0.0000
      8 O8          -0.1154 -11.1813   8.0186 O.2            1 <1>                0.0000
      9 N9           0.4046 -13.2123   8.7446 N.am           1 <1>                0.0000
     10 C10          0.1517 -14.3204   9.6780 C.3            1 <1>                0.0000
     11 C11         -0.0996 -15.5944   8.8643 C.3            1 <1>                0.0000
     12 N12          1.0188 -15.8073   7.9359 N.3            1 <1>                0.0000
     13 C13          1.1173 -14.7132   6.9606 C.3            1 <1>                0.0000
     14 C14          1.4141 -13.4052   7.6925 C.3            1 <1>                0.0000
     15 H15          1.2165  -9.9961  11.3538 H              1 <1>                0.0000
     16 H16          1.3061 -11.4681  10.3572 H              1 <1>                0.0000
     17 H17          0.6719  -9.9585   9.6596 H              1 <1>                0.0000
     18 H18         -1.5019  -9.3821  12.1332 H              1 <1>                0.0000
     19 H19         -1.0775  -8.9376  10.4516 H              1 <1>                0.0000
     20 H20         -3.4072 -10.6800  11.4263 H              1 <1>                0.0000
     21 H21         -3.4424  -9.3233  10.2507 H              1 <1>                0.0000
     22 H22         -3.3131 -11.8866   9.3416 H              1 <1>                0.0000
     23 H23         -2.3235 -10.6144   8.5536 H              1 <1>                0.0000
     24 H24         -1.4782 -12.7936  10.4551 H              1 <1>                0.0000
     25 H25          1.0197 -14.4623  10.3216 H              1 <1>                0.0000
     26 H26         -0.7250 -14.0949  10.2851 H              1 <1>                0.0000
     27 H27         -0.1798 -16.4469   9.5387 H              1 <1>                0.0000
     28 H28         -1.0259 -15.4886   8.2996 H              1 <1>                0.0000
     29 H29          1.9197 -14.9266   6.2545 H              1 <1>                0.0000
     30 H30          0.1741 -14.6196   6.4224 H              1 <1>                0.0000
     31 H31          1.3746 -12.5744   6.9880 H              1 <1>                0.0000
     32 H32          2.4033 -13.4566   8.1474 H              1 <1>                0.0000
     33 H33          1.8869 -15.9247   8.4366 H              1 <1>                0.0000
     34 H34         -0.5848 -11.4041  11.8839 H              1 <1>                0.0000
@<TRIPOS>BOND
    1    1    2 1     
    2    1   15 1     
    3    1   16 1     
    4    1   17 1     
    5    2    3 1     
    6    2    6 1     
    7    2   34 1     
    8    3    4 1     
    9    3   18 1     
   10    3   19 1     
   11    4    5 1     
   12    4   20 1     
   13    4   21 1     
   14    5    6 1     
   15    5   22 1     
   16    5   23 1     
   17    6    7 1     
   18    6   24 1     
   19    7    8 2     
   20    7    9 am    
   21    9   10 1     
   22    9   14 1     
   23   10   11 1     
   24   10   25 1     
   25   10   26 1     
   26   11   12 1     
   27   11   27 1     
   28   11   28 1     
   29   12   13 1     
   30   12   33 1     
   31   13   14 1     
   32   13   29 1     
   33   13   30 1     
   34   14   31 1     
   35   14   32 1     
@<TRIPOS>SUBSTRUCTURE
      1 ****           1
@<TRIPOS>SET
DONOR_HYDROGENS      STATIC     ATOMS    <user>   **** ""
2 34 33
ATOM$RED        STATIC     ATOMS    COLORGROUP SYSTEM
2 34 33
@<TRIPOS>COMMENT
> <Gold.Version>
2022.2.0

> <Gold.Id.Protein>
3pbl|protein|mol2

> <Gold.Protein.RotatedTorsions>
[ 1303 1298 1297 1294 ] final   66.88 input  179.99 | X-H torsion
[ 2461 2456 2455 2452 ] final -162.30 input   30.03 | X-H torsion
[ 2515 2510 2509 2506 ] final  -91.44 input  -89.99 | X-H torsion
[ 3721 3712 3711 3710 ] final -157.83 input -179.91 | X-H torsion
[ 3841 3832 3831 3830 ] final -175.50 input -179.91 | X-H torsion
[ 3767 3762 3761 3758 ] final   -6.13 input  -89.99 | X-H torsion
[ 2472 2467 2466 2463 ] final -153.15 input  -89.97 | X-H torsion

> <Gold.Protein.ActiveResidues>
 VAL82   VAL86   LEU89   PHE106  VAL107  ASP110  VAL111  MET112  CYS114  THR115 
 CYS181  SER182  ILE183  PHE188  VAL189  ILE190  SER192  SER193  SER196  TRP342 
 PHE345  PHE346  HIS349  VAL350  TYR365  THR369  GLY372  TYR373 

> <Gold.Protein.RotatedAtoms>
    4.1027  -10.2564    4.6943 H   0  0  0  0  0  0  0  0  0  0  0  0  # atno 1303 bound_to 1298
    1.1699   -9.2809    8.3670 H   0  0  0  0  0  0  0  0  0  0  0  0  # atno 2461 bound_to 2456
   -5.0244   -5.4557    9.3074 H   0  0  0  0  0  0  0  0  0  0  0  0  # atno 2472 bound_to 2467
    2.8181   -8.9496    4.6258 H   0  0  0  0  0  0  0  0  0  0  0  0  # atno 2515 bound_to 2510
   -3.3364  -16.5318   13.8707 H   0  0  0  0  0  0  0  0  0  0  0  0  # atno 3721 bound_to 3712
   -5.3747  -22.6409   10.1893 H   0  0  0  0  0  0  0  0  0  0  0  0  # atno 3767 bound_to 3762
    2.9171  -19.9995    8.3914 H   0  0  0  0  0  0  0  0  0  0  0  0  # atno 3841 bound_to 3832
    3.4447   -9.0757    3.7782 LP  0  0  0  0  0  0  0  0  0  0  0  0  # atno 4297 bound_to 1298
    4.8148   -8.7889    4.6190 LP  0  0  0  0  0  0  0  0  0  0  0  0  # atno 4298 bound_to 1298
    2.0739   -8.1739    7.5766 LP  0  0  0  0  0  0  0  0  0  0  0  0  # atno 4299 bound_to 2456
    0.4940   -8.3536    7.2047 LP  0  0  0  0  0  0  0  0  0  0  0  0  # atno 4300 bound_to 2456
    2.1367   -8.6213    6.0727 LP  0  0  0  0  0  0  0  0  0  0  0  0  # atno 4301 bound_to 2510
    2.3417   -7.4280    4.9770 LP  0  0  0  0  0  0  0  0  0  0  0  0  # atno 4302 bound_to 2510
   -2.8811  -17.8708   13.1108 LP  0  0  0  0  0  0  0  0  0  0  0  0  # atno 4306 bound_to 3712
   -2.7946  -17.7693   14.7383 LP  0  0  0  0  0  0  0  0  0  0  0  0  # atno 4307 bound_to 3712
    2.4406  -21.1496    9.4045 LP  0  0  0  0  0  0  0  0  0  0  0  0  # atno 4314 bound_to 3832
    1.4191  -19.9533    8.9659 LP  0  0  0  0  0  0  0  0  0  0  0  0  # atno 4315 bound_to 3832
   -4.7639  -22.0019   11.5623 LP  0  0  0  0  0  0  0  0  0  0  0  0  # atno 4318 bound_to 3762
   -3.9890  -23.2323   10.8192 LP  0  0  0  0  0  0  0  0  0  0  0  0  # atno 4319 bound_to 3762
   -5.0579   -4.9048    7.7706 LP  0  0  0  0  0  0  0  0  0  0  0  0  # atno 4320 bound_to 2467
   -3.6348   -5.0331    8.5612 LP  0  0  0  0  0  0  0  0  0  0  0  0  # atno 4321 bound_to 2467

> <Gold.Score>
     Score     S(PLP)   S(hbond)     S(cho)   S(metal)  DE(clash)   DE(tors)     intcor
     46.69     -44.36       0.88       0.00       0.00       0.00       0.46       0.59

> <Gold.PLP.Fitness>
46.6915

> <Gold.PLP.PLP>
-44.3638

> <Gold.PLP.part.hbond>
-2.0000

> <Gold.PLP.part.metal>
0.0000

> <Gold.PLP.part.buried>
-5.5275

> <Gold.PLP.part.nonpolar>
-38.7584

> <Gold.PLP.part.repulsive>
0.0184

> <Gold.PLP.ligand.clash>
0.0000

> <Gold.PLP.ligand.torsion>
0.4567

> <Gold.PLP.Chemscore.Hbond>
0.8848

> <Gold.PLP.Chemscore.CHOScore>
0.0000

> <Gold.PLP.Chemscore.Metal>
0.0000

> <Gold.Chemscore.Hbonds>
donor molecule, donor type, donor heavy atom, donor atom, acceptor molecule, acceptor atom, score
      L1  H    12    33       P1  1227  0.59
      P1  H  2456  2461       L1     8  0.30

> <Gold.PLP.Chemscore.Internal.Correction>
0.5868

