#       Name:                EN300-110418_i004
#       Creating user name   fsindt
#       Creation time:       Tue Feb 28 15:24:59 2023


#       File generated by GOLD software.
#

@<TRIPOS>MOLECULE
EN300-110418_i004|amine_7|mol2|6400|dock1
    34    35     1
SMALL
USER_CHARGES


@<TRIPOS>ATOM
      1 C1          -0.3987 -16.6014  10.0184 C.3            1 <1>                0.0000
      2 N2           0.6365 -15.7870   9.3678 N.4            1 <1>                1.0000
      3 C3           0.1031 -15.2132   8.1140 C.3            1 <1>                0.0000
      4 C4           0.7425 -13.8053   8.0198 C.3            1 <1>                0.0000
      5 C5           0.7485 -13.3639   9.5071 C.3            1 <1>                0.0000
      6 C6           1.0311 -14.6812  10.2596 C.3            1 <1>                0.0000
      7 C7           0.2194 -14.7312  11.5284 C.2            1 <1>                0.0000
      8 O8          -0.8710 -14.2019  11.5719 O.2            1 <1>                0.0000
      9 N9           0.7051 -15.3640  12.6147 N.am           1 <1>                0.0000
     10 C10         -0.1111 -15.5139  13.8290 C.3            1 <1>                0.0000
     11 C11         -0.0993 -16.9889  14.2443 C.3            1 <1>                0.0000
     12 N12          1.2904 -17.4481  14.3694 N.3            1 <1>                0.0000
     13 C13          1.9917 -17.3817  13.0803 C.3            1 <1>                0.0000
     14 C14          2.0634 -15.9281  12.6151 C.3            1 <1>                0.0000
     15 H15         -0.6056 -17.4809   9.4086 H              1 <1>                0.0000
     16 H16         -0.0491 -16.9153  11.0019 H              1 <1>                0.0000
     17 H17         -1.3092 -16.0123  10.1273 H              1 <1>                0.0000
     18 H18          0.4007 -15.8229   7.2608 H              1 <1>                0.0000
     19 H19         -0.9829 -15.1342   8.1646 H              1 <1>                0.0000
     20 H20          1.7569 -13.8629   7.6255 H              1 <1>                0.0000
     21 H21          0.1279 -13.1370   7.4167 H              1 <1>                0.0000
     22 H22          1.5405 -12.6378   9.6903 H              1 <1>                0.0000
     23 H23         -0.2219 -12.9576   9.7925 H              1 <1>                0.0000
     24 H24          2.0933 -14.7543  10.4932 H              1 <1>                0.0000
     25 H25          0.3083 -14.9048  14.6296 H              1 <1>                0.0000
     26 H26         -1.1343 -15.1996  13.6234 H              1 <1>                0.0000
     27 H27         -0.6072 -17.1012  15.2021 H              1 <1>                0.0000
     28 H28         -0.6122 -17.5837  13.4884 H              1 <1>                0.0000
     29 H29          3.0003 -17.7788  13.1942 H              1 <1>                0.0000
     30 H30          1.4497 -17.9711  12.3407 H              1 <1>                0.0000
     31 H31          2.4796 -15.8859  11.6086 H              1 <1>                0.0000
     32 H32          2.6910 -15.3557  13.2982 H              1 <1>                0.0000
     33 H33          1.7825 -16.9225  15.0763 H              1 <1>                0.0000
     34 H34          1.4416 -16.3598   9.1636 H              1 <1>                0.0000
@<TRIPOS>BOND
    1    1    2 1     
    2    1   15 1     
    3    1   16 1     
    4    1   17 1     
    5    2    3 1     
    6    2    6 1     
    7    2   34 1     
    8    3    4 1     
    9    3   18 1     
   10    3   19 1     
   11    4    5 1     
   12    4   20 1     
   13    4   21 1     
   14    5    6 1     
   15    5   22 1     
   16    5   23 1     
   17    6    7 1     
   18    6   24 1     
   19    7    8 2     
   20    7    9 am    
   21    9   10 1     
   22    9   14 1     
   23   10   11 1     
   24   10   25 1     
   25   10   26 1     
   26   11   12 1     
   27   11   27 1     
   28   11   28 1     
   29   12   13 1     
   30   12   33 1     
   31   13   14 1     
   32   13   29 1     
   33   13   30 1     
   34   14   31 1     
   35   14   32 1     
@<TRIPOS>SUBSTRUCTURE
      1 ****           1
@<TRIPOS>SET
DONOR_HYDROGENS      STATIC     ATOMS    <user>   **** ""
2 34 33
ATOM$RED        STATIC     ATOMS    COLORGROUP SYSTEM
2 34 33
@<TRIPOS>COMMENT
> <Gold.Version>
2022.2.0

> <Gold.Id.Protein>
3pbl|protein|mol2

> <Gold.Protein.RotatedTorsions>
[ 1303 1298 1297 1294 ] final   55.63 input  179.99 | X-H torsion
[ 2461 2456 2455 2452 ] final  -97.04 input   30.03 | X-H torsion
[ 2515 2510 2509 2506 ] final  -61.68 input  -89.99 | X-H torsion
[ 3721 3712 3711 3710 ] final   65.88 input -179.91 | X-H torsion
[ 3841 3832 3831 3830 ] final  -81.80 input -179.91 | X-H torsion
[ 3767 3762 3761 3758 ] final  -37.55 input  -89.99 | X-H torsion
[ 2472 2467 2466 2463 ] final   20.87 input  -89.97 | X-H torsion

> <Gold.Protein.ActiveResidues>
 VAL82   VAL86   LEU89   PHE106  VAL107  ASP110  VAL111  MET112  CYS114  THR115 
 CYS181  SER182  ILE183  PHE188  VAL189  ILE190  SER192  SER193  SER196  TRP342 
 PHE345  PHE346  HIS349  VAL350  TYR365  THR369  GLY372  TYR373 

> <Gold.Protein.RotatedAtoms>
    3.9487  -10.2717    4.5932 H   0  0  0  0  0  0  0  0  0  0  0  0  # atno 1303 bound_to 1298
    0.3854   -8.9809    7.7935 H   0  0  0  0  0  0  0  0  0  0  0  0  # atno 2461 bound_to 2456
   -4.0371   -4.8170    7.8367 H   0  0  0  0  0  0  0  0  0  0  0  0  # atno 2472 bound_to 2467
    2.8260   -8.5266    4.3910 H   0  0  0  0  0  0  0  0  0  0  0  0  # atno 2515 bound_to 2510
   -2.6238  -17.8617   13.3152 H   0  0  0  0  0  0  0  0  0  0  0  0  # atno 3721 bound_to 3712
   -5.5104  -22.2682   10.5108 H   0  0  0  0  0  0  0  0  0  0  0  0  # atno 3767 bound_to 3762
    1.7701  -19.6530    8.7913 H   0  0  0  0  0  0  0  0  0  0  0  0  # atno 3841 bound_to 3832
    3.5379   -8.9161    3.7810 LP  0  0  0  0  0  0  0  0  0  0  0  0  # atno 4297 bound_to 1298
    4.8757   -8.9332    4.7173 LP  0  0  0  0  0  0  0  0  0  0  0  0  # atno 4298 bound_to 1298
    1.9469   -8.9093    8.2670 LP  0  0  0  0  0  0  0  0  0  0  0  0  # atno 4299 bound_to 2456
    1.4052   -7.9181    7.0877 LP  0  0  0  0  0  0  0  0  0  0  0  0  # atno 4300 bound_to 2456
    2.3122   -9.0193    5.8603 LP  0  0  0  0  0  0  0  0  0  0  0  0  # atno 4301 bound_to 2510
    2.1584   -7.4532    5.4244 LP  0  0  0  0  0  0  0  0  0  0  0  0  # atno 4302 bound_to 2510
   -2.9365  -17.5045   14.8489 LP  0  0  0  0  0  0  0  0  0  0  0  0  # atno 4306 bound_to 3712
   -3.5620  -16.6002   13.6415 LP  0  0  0  0  0  0  0  0  0  0  0  0  # atno 4307 bound_to 3712
    3.0956  -20.4598    8.3813 LP  0  0  0  0  0  0  0  0  0  0  0  0  # atno 4314 bound_to 3832
    2.0889  -21.0433    9.5271 LP  0  0  0  0  0  0  0  0  0  0  0  0  # atno 4315 bound_to 3832
   -4.3388  -22.2710   11.6484 LP  0  0  0  0  0  0  0  0  0  0  0  0  # atno 4318 bound_to 3762
   -4.2785  -23.3357   10.4117 LP  0  0  0  0  0  0  0  0  0  0  0  0  # atno 4319 bound_to 3762
   -4.1730   -5.3813    9.3629 LP  0  0  0  0  0  0  0  0  0  0  0  0  # atno 4320 bound_to 2467
   -5.5068   -5.1952    8.4394 LP  0  0  0  0  0  0  0  0  0  0  0  0  # atno 4321 bound_to 2467

> <Gold.Score>
     Score     S(PLP)   S(hbond)     S(cho)   S(metal)  DE(clash)   DE(tors)     intcor
     42.01     -36.87       2.00       0.00       0.00       0.00       0.74       0.61

> <Gold.PLP.Fitness>
42.0056

> <Gold.PLP.PLP>
-36.8676

> <Gold.PLP.part.hbond>
-1.0000

> <Gold.PLP.part.metal>
0.0000

> <Gold.PLP.part.buried>
-1.9132

> <Gold.PLP.part.nonpolar>
-34.1020

> <Gold.PLP.part.repulsive>
0.0702

> <Gold.PLP.ligand.clash>
0.0000

> <Gold.PLP.ligand.torsion>
0.7358

> <Gold.PLP.Chemscore.Hbond>
2.0000

> <Gold.PLP.Chemscore.CHOScore>
0.0000

> <Gold.PLP.Chemscore.Metal>
0.0000

> <Gold.Chemscore.Hbonds>
donor molecule, donor type, donor heavy atom, donor atom, acceptor molecule, acceptor atom, score
      L1  H     2    34       P1  1227  2.00

> <Gold.PLP.Chemscore.Internal.Correction>
0.6096

