#       Name:                EN300-110418_i004
#       Creating user name   fsindt
#       Creation time:       Tue Feb 28 15:25:02 2023


#       File generated by GOLD software.
#

@<TRIPOS>MOLECULE
EN300-110418_i004|amine_7|mol2|6400|dock8
    34    35     1
SMALL
USER_CHARGES


@<TRIPOS>ATOM
      1 C1          -0.2605 -13.0848  10.4856 C.3            1 <1>                0.0000
      2 N2          -1.5011 -12.3083  10.3592 N.4            1 <1>                1.0000
      3 C3          -1.6340 -11.3917  11.5116 C.3            1 <1>                0.0000
      4 C4          -2.2798 -10.1112  10.9261 C.3            1 <1>                0.0000
      5 C5          -1.5989 -10.0249   9.5348 C.3            1 <1>                0.0000
      6 C6          -1.4602 -11.5056   9.1231 C.3            1 <1>                0.0000
      7 C7          -0.1470 -11.7202   8.4156 C.2            1 <1>                0.0000
      8 O8           0.7214 -10.8759   8.4797 O.2            1 <1>                0.0000
      9 N9           0.0624 -12.8503   7.7116 N.am           1 <1>                0.0000
     10 C10          1.3708 -13.1269   7.0995 C.3            1 <1>                0.0000
     11 C11          1.8147 -14.5336   7.5147 C.3            1 <1>                0.0000
     12 N12          0.7567 -15.4962   7.1805 N.3            1 <1>                0.0000
     13 C13         -0.4739 -15.2181   7.9330 C.3            1 <1>                0.0000
     14 C14         -1.0098 -13.8423   7.5400 C.3            1 <1>                0.0000
     15 H15         -0.3407 -13.7618  11.3361 H              1 <1>                0.0000
     16 H16         -0.0991 -13.6625   9.5754 H              1 <1>                0.0000
     17 H17          0.5787 -12.4064  10.6389 H              1 <1>                0.0000
     18 H18         -2.2808 -11.8294  12.2719 H              1 <1>                0.0000
     19 H19         -0.6538 -11.1647  11.9308 H              1 <1>                0.0000
     20 H20         -3.3588 -10.2288  10.8261 H              1 <1>                0.0000
     21 H21         -2.0382  -9.2392  11.5338 H              1 <1>                0.0000
     22 H22         -2.2312  -9.4862   8.8291 H              1 <1>                0.0000
     23 H23         -0.6192  -9.5534   9.6137 H              1 <1>                0.0000
     24 H24         -2.2862 -11.7878   8.4702 H              1 <1>                0.0000
     25 H25          1.2856 -13.0753   6.0142 H              1 <1>                0.0000
     26 H26          2.0999 -12.3952   7.4476 H              1 <1>                0.0000
     27 H27          2.7287 -14.7984   6.9831 H              1 <1>                0.0000
     28 H28          1.9994 -14.5545   8.5888 H              1 <1>                0.0000
     29 H29         -1.2198 -15.9794   7.7045 H              1 <1>                0.0000
     30 H30         -0.2574 -15.2295   9.0012 H              1 <1>                0.0000
     31 H31         -1.8558 -13.5834   8.1768 H              1 <1>                0.0000
     32 H32         -1.3242 -13.8562   6.4964 H              1 <1>                0.0000
     33 H33          0.5786 -15.5072   6.1873 H              1 <1>                0.0000
     34 H34         -2.2924 -12.9336  10.3296 H              1 <1>                0.0000
@<TRIPOS>BOND
    1    1    2 1     
    2    1   15 1     
    3    1   16 1     
    4    1   17 1     
    5    2    3 1     
    6    2    6 1     
    7    2   34 1     
    8    3    4 1     
    9    3   18 1     
   10    3   19 1     
   11    4    5 1     
   12    4   20 1     
   13    4   21 1     
   14    5    6 1     
   15    5   22 1     
   16    5   23 1     
   17    6    7 1     
   18    6   24 1     
   19    7    8 2     
   20    7    9 am    
   21    9   10 1     
   22    9   14 1     
   23   10   11 1     
   24   10   25 1     
   25   10   26 1     
   26   11   12 1     
   27   11   27 1     
   28   11   28 1     
   29   12   13 1     
   30   12   33 1     
   31   13   14 1     
   32   13   29 1     
   33   13   30 1     
   34   14   31 1     
   35   14   32 1     
@<TRIPOS>SUBSTRUCTURE
      1 ****           1
@<TRIPOS>SET
DONOR_HYDROGENS      STATIC     ATOMS    <user>   **** ""
2 34 33
ATOM$RED        STATIC     ATOMS    COLORGROUP SYSTEM
2 34 33
@<TRIPOS>COMMENT
> <Gold.Version>
2022.2.0

> <Gold.Id.Protein>
3pbl|protein|mol2

> <Gold.Protein.RotatedTorsions>
[ 1303 1298 1297 1294 ] final   -1.97 input  179.99 | X-H torsion
[ 2461 2456 2455 2452 ] final -151.08 input   30.03 | X-H torsion
[ 2515 2510 2509 2506 ] final -125.10 input  -89.99 | X-H torsion
[ 3721 3712 3711 3710 ] final   89.28 input -179.91 | X-H torsion
[ 3841 3832 3831 3830 ] final   -7.98 input -179.91 | X-H torsion
[ 3767 3762 3761 3758 ] final  114.12 input  -89.99 | X-H torsion
[ 2472 2467 2466 2463 ] final  108.11 input  -89.97 | X-H torsion

> <Gold.Protein.ActiveResidues>
 VAL82   VAL86   LEU89   PHE106  VAL107  ASP110  VAL111  MET112  CYS114  THR115 
 CYS181  SER182  ILE183  PHE188  VAL189  ILE190  SER192  SER193  SER196  TRP342 
 PHE345  PHE346  HIS349  VAL350  TYR365  THR369  GLY372  TYR373 

> <Gold.Protein.RotatedAtoms>
    3.3765   -9.8465    4.0305 H   0  0  0  0  0  0  0  0  0  0  0  0  # atno 1303 bound_to 1298
    0.9938   -9.2881    8.3128 H   0  0  0  0  0  0  0  0  0  0  0  0  # atno 2461 bound_to 2456
   -5.3157   -5.0092    7.9795 H   0  0  0  0  0  0  0  0  0  0  0  0  # atno 2472 bound_to 2467
    2.6878   -9.2280    5.0769 H   0  0  0  0  0  0  0  0  0  0  0  0  # atno 2515 bound_to 2510
   -2.7786  -17.6236   13.1085 H   0  0  0  0  0  0  0  0  0  0  0  0  # atno 3721 bound_to 3712
   -3.9869  -23.2303   10.8223 H   0  0  0  0  0  0  0  0  0  0  0  0  # atno 3767 bound_to 3762
    1.6740  -20.3940    9.5143 H   0  0  0  0  0  0  0  0  0  0  0  0  # atno 3841 bound_to 3832
    4.2603   -8.4759    4.1122 LP  0  0  0  0  0  0  0  0  0  0  0  0  # atno 4297 bound_to 1298
    4.7257   -9.7987    4.9490 LP  0  0  0  0  0  0  0  0  0  0  0  0  # atno 4298 bound_to 1298
    2.1340   -8.2862    7.7098 LP  0  0  0  0  0  0  0  0  0  0  0  0  # atno 4299 bound_to 2456
    0.6099   -8.2341    7.1257 LP  0  0  0  0  0  0  0  0  0  0  0  0  # atno 4300 bound_to 2456
    2.0338   -8.0858    6.0430 LP  0  0  0  0  0  0  0  0  0  0  0  0  # atno 4301 bound_to 2510
    2.5750   -7.6849    4.5554 LP  0  0  0  0  0  0  0  0  0  0  0  0  # atno 4302 bound_to 2510
   -2.7678  -17.8216   14.7018 LP  0  0  0  0  0  0  0  0  0  0  0  0  # atno 4306 bound_to 3712
   -3.5519  -16.5579   14.0273 LP  0  0  0  0  0  0  0  0  0  0  0  0  # atno 4307 bound_to 3712
    2.2653  -19.6848    8.2015 LP  0  0  0  0  0  0  0  0  0  0  0  0  # atno 4314 bound_to 3832
    3.0304  -20.9624    8.8716 LP  0  0  0  0  0  0  0  0  0  0  0  0  # atno 4315 bound_to 3832
   -5.3730  -22.6446   10.1879 LP  0  0  0  0  0  0  0  0  0  0  0  0  # atno 4318 bound_to 3762
   -4.7672  -22.0004   11.5608 LP  0  0  0  0  0  0  0  0  0  0  0  0  # atno 4319 bound_to 3762
   -3.7056   -4.9245    8.2382 LP  0  0  0  0  0  0  0  0  0  0  0  0  # atno 4320 bound_to 2467
   -4.6957   -5.4598    9.4213 LP  0  0  0  0  0  0  0  0  0  0  0  0  # atno 4321 bound_to 2467

> <Gold.Score>
     Score     S(PLP)   S(hbond)     S(cho)   S(metal)  DE(clash)   DE(tors)     intcor
     44.87     -42.12       1.00       0.00       0.00       0.00       0.42       0.59

> <Gold.PLP.Fitness>
44.8683

> <Gold.PLP.PLP>
-42.1159

> <Gold.PLP.part.hbond>
-0.9893

> <Gold.PLP.part.metal>
0.0000

> <Gold.PLP.part.buried>
-3.0619

> <Gold.PLP.part.nonpolar>
-39.6835

> <Gold.PLP.part.repulsive>
0.0347

> <Gold.PLP.ligand.clash>
0.0000

> <Gold.PLP.ligand.torsion>
0.4172

> <Gold.PLP.Chemscore.Hbond>
1.0000

> <Gold.PLP.Chemscore.CHOScore>
0.0000

> <Gold.PLP.Chemscore.Metal>
0.0000

> <Gold.Chemscore.Hbonds>
donor molecule, donor type, donor heavy atom, donor atom, acceptor molecule, acceptor atom, score
      P1  H  2456  2461       L1     8  1.00

> <Gold.PLP.Chemscore.Internal.Correction>
0.5868

