#       Name:                EN300-110418_i004
#       Creating user name   fsindt
#       Creation time:       Tue Feb 28 15:25:06 2023


#       File generated by GOLD software.
#

@<TRIPOS>MOLECULE
EN300-110418_i004|amine_7|mol2|6400|dock14
    34    35     1
SMALL
USER_CHARGES


@<TRIPOS>ATOM
      1 C1          -0.1098 -17.4627  10.6261 C.3            1 <1>                0.0000
      2 N2           0.5984 -16.2404  10.2228 N.4            1 <1>                1.0000
      3 C3          -0.1001 -15.6148   9.0798 C.3            1 <1>                0.0000
      4 C4           0.0429 -14.0904   9.3152 C.3            1 <1>                0.0000
      5 C5          -0.0878 -13.9980  10.8583 C.3            1 <1>                0.0000
      6 C6           0.6143 -15.2834  11.3443 C.3            1 <1>                0.0000
      7 C7          -0.1295 -15.8602  12.5212 C.2            1 <1>                0.0000
      8 O8          -1.3420 -15.8903  12.5166 O.2            1 <1>                0.0000
      9 N9           0.5526 -16.3426  13.5788 N.am           1 <1>                0.0000
     10 C10         -0.1474 -17.0026  14.6913 C.3            1 <1>                0.0000
     11 C11          0.5248 -18.3540  14.9559 C.3            1 <1>                0.0000
     12 N12          1.9647 -18.1492  15.1623 N.3            1 <1>                0.0000
     13 C13          2.6037 -17.6050  13.9567 C.3            1 <1>                0.0000
     14 C14          2.0173 -16.2282  13.6482 C.3            1 <1>                0.0000
     15 H15         -0.0209 -18.2108   9.8383 H              1 <1>                0.0000
     16 H16          0.3285 -17.8499  11.5459 H              1 <1>                0.0000
     17 H17         -1.1624 -17.2344  10.7932 H              1 <1>                0.0000
     18 H18          0.3760 -15.9003   8.1418 H              1 <1>                0.0000
     19 H19         -1.1519 -15.9010   9.0751 H              1 <1>                0.0000
     20 H20          1.0182 -13.7340   8.9839 H              1 <1>                0.0000
     21 H21         -0.7597 -13.5422   8.8218 H              1 <1>                0.0000
     22 H22          0.4240 -13.1129  11.2360 H              1 <1>                0.0000
     23 H23         -1.1361 -13.9951  11.1568 H              1 <1>                0.0000
     24 H24          1.6432 -15.0599  11.6264 H              1 <1>                0.0000
     25 H25         -0.0837 -16.3809  15.5842 H              1 <1>                0.0000
     26 H26         -1.1926 -17.1594  14.4247 H              1 <1>                0.0000
     27 H27          0.0905 -18.8080  15.8467 H              1 <1>                0.0000
     28 H28          0.3698 -19.0111  14.1001 H              1 <1>                0.0000
     29 H29          3.6772 -17.5157  14.1229 H              1 <1>                0.0000
     30 H30          2.4198 -18.2725  13.1148 H              1 <1>                0.0000
     31 H31          2.4040 -15.8711  12.6937 H              1 <1>                0.0000
     32 H32          2.2869 -15.5296  14.4403 H              1 <1>                0.0000
     33 H33          2.1347 -17.5561  15.9607 H              1 <1>                0.0000
     34 H34          1.5455 -16.4673   9.9591 H              1 <1>                0.0000
@<TRIPOS>BOND
    1    1    2 1     
    2    1   15 1     
    3    1   16 1     
    4    1   17 1     
    5    2    3 1     
    6    2    6 1     
    7    2   34 1     
    8    3    4 1     
    9    3   18 1     
   10    3   19 1     
   11    4    5 1     
   12    4   20 1     
   13    4   21 1     
   14    5    6 1     
   15    5   22 1     
   16    5   23 1     
   17    6    7 1     
   18    6   24 1     
   19    7    8 2     
   20    7    9 am    
   21    9   10 1     
   22    9   14 1     
   23   10   11 1     
   24   10   25 1     
   25   10   26 1     
   26   11   12 1     
   27   11   27 1     
   28   11   28 1     
   29   12   13 1     
   30   12   33 1     
   31   13   14 1     
   32   13   29 1     
   33   13   30 1     
   34   14   31 1     
   35   14   32 1     
@<TRIPOS>SUBSTRUCTURE
      1 ****           1
@<TRIPOS>SET
DONOR_HYDROGENS      STATIC     ATOMS    <user>   **** ""
2 34 33
ATOM$RED        STATIC     ATOMS    COLORGROUP SYSTEM
2 34 33
@<TRIPOS>COMMENT
> <Gold.Version>
2022.2.0

> <Gold.Id.Protein>
3pbl|protein|mol2

> <Gold.Protein.RotatedTorsions>
[ 1303 1298 1297 1294 ] final  -42.73 input  179.99 | X-H torsion
[ 2461 2456 2455 2452 ] final -124.04 input   30.03 | X-H torsion
[ 2515 2510 2509 2506 ] final -128.97 input  -89.99 | X-H torsion
[ 3721 3712 3711 3710 ] final  138.50 input -179.91 | X-H torsion
[ 3841 3832 3831 3830 ] final   10.78 input -179.91 | X-H torsion
[ 3767 3762 3761 3758 ] final   35.41 input  -89.99 | X-H torsion
[ 2472 2467 2466 2463 ] final  -82.15 input  -89.97 | X-H torsion

> <Gold.Protein.ActiveResidues>
 VAL82   VAL86   LEU89   PHE106  VAL107  ASP110  VAL111  MET112  CYS114  THR115 
 CYS181  SER182  ILE183  PHE188  VAL189  ILE190  SER192  SER193  SER196  TRP342 
 PHE345  PHE346  HIS349  VAL350  TYR365  THR369  GLY372  TYR373 

> <Gold.Protein.RotatedAtoms>
    3.3815   -9.2334    3.7961 H   0  0  0  0  0  0  0  0  0  0  0  0  # atno 1303 bound_to 1298
    0.6212   -9.1995    8.0942 H   0  0  0  0  0  0  0  0  0  0  0  0  # atno 2461 bound_to 2456
   -3.9426   -5.3072    9.2256 H   0  0  0  0  0  0  0  0  0  0  0  0  # atno 2472 bound_to 2467
    2.6662   -9.2415    5.1351 H   0  0  0  0  0  0  0  0  0  0  0  0  # atno 2515 bound_to 2510
   -3.1372  -16.9975   13.1103 H   0  0  0  0  0  0  0  0  0  0  0  0  # atno 3721 bound_to 3712
   -4.9105  -23.1080   10.0726 H   0  0  0  0  0  0  0  0  0  0  0  0  # atno 3767 bound_to 3762
    1.8401  -20.6050    9.6004 H   0  0  0  0  0  0  0  0  0  0  0  0  # atno 3841 bound_to 3832
    4.7349   -8.6756    4.5196 LP  0  0  0  0  0  0  0  0  0  0  0  0  # atno 4297 bound_to 1298
    4.2460  -10.2124    4.7761 LP  0  0  0  0  0  0  0  0  0  0  0  0  # atno 4298 bound_to 1298
    2.1377   -8.5974    8.0220 LP  0  0  0  0  0  0  0  0  0  0  0  0  # atno 4299 bound_to 2456
    0.9787   -8.0114    7.0321 LP  0  0  0  0  0  0  0  0  0  0  0  0  # atno 4300 bound_to 2456
    2.0303   -8.0263    6.0209 LP  0  0  0  0  0  0  0  0  0  0  0  0  # atno 4301 bound_to 2510
    2.6001   -7.7309    4.5193 LP  0  0  0  0  0  0  0  0  0  0  0  0  # atno 4302 bound_to 2510
   -2.6071  -18.2076   14.0227 LP  0  0  0  0  0  0  0  0  0  0  0  0  # atno 4306 bound_to 3712
   -3.2987  -16.8948   14.7044 LP  0  0  0  0  0  0  0  0  0  0  0  0  # atno 4307 bound_to 3712
    1.9855  -19.6349    8.3301 LP  0  0  0  0  0  0  0  0  0  0  0  0  # atno 4314 bound_to 3832
    3.1183  -20.7685    8.6436 LP  0  0  0  0  0  0  0  0  0  0  0  0  # atno 4315 bound_to 3832
   -5.2808  -21.9325   11.1439 LP  0  0  0  0  0  0  0  0  0  0  0  0  # atno 4318 bound_to 3762
   -3.9361  -22.8348   11.3543 LP  0  0  0  0  0  0  0  0  0  0  0  0  # atno 4319 bound_to 3762
   -5.4890   -5.2876    8.7014 LP  0  0  0  0  0  0  0  0  0  0  0  0  # atno 4320 bound_to 2467
   -4.2852   -4.7987    7.7122 LP  0  0  0  0  0  0  0  0  0  0  0  0  # atno 4321 bound_to 2467

> <Gold.Score>
     Score     S(PLP)   S(hbond)     S(cho)   S(metal)  DE(clash)   DE(tors)     intcor
     38.66     -31.52       2.49       0.00       0.00       0.00       0.46       0.59

> <Gold.PLP.Fitness>
38.6570

> <Gold.PLP.PLP>
-31.5235

> <Gold.PLP.part.hbond>
-2.5625

> <Gold.PLP.part.metal>
0.0000

> <Gold.PLP.part.buried>
2.3149

> <Gold.PLP.part.nonpolar>
-31.9815

> <Gold.PLP.part.repulsive>
0.3518

> <Gold.PLP.ligand.clash>
0.0000

> <Gold.PLP.ligand.torsion>
0.4567

> <Gold.PLP.Chemscore.Hbond>
2.4867

> <Gold.PLP.Chemscore.CHOScore>
0.0000

> <Gold.PLP.Chemscore.Metal>
0.0000

> <Gold.Chemscore.Hbonds>
donor molecule, donor type, donor heavy atom, donor atom, acceptor molecule, acceptor atom, score
      L1  H     2    34       P1  1227  2.00
      P1  H  3712  3721       L1     8  0.49

> <Gold.PLP.Chemscore.Internal.Correction>
0.5868

