#       Name:                EN300-110418_i004
#       Creating user name   fsindt
#       Creation time:       Tue Feb 28 15:25:04 2023


#       File generated by GOLD software.
#

@<TRIPOS>MOLECULE
EN300-110418_i004|amine_7|mol2|6400|dock12
    34    35     1
SMALL
USER_CHARGES


@<TRIPOS>ATOM
      1 C1           0.4615 -18.8615  14.3601 C.3            1 <1>                0.0000
      2 N2          -0.4808 -18.0127  13.6189 N.4            1 <1>                1.0000
      3 C3           0.0992 -16.6648  13.4389 C.3            1 <1>                0.0000
      4 C4          -0.3745 -16.2145  12.0345 C.3            1 <1>                0.0000
      5 C5          -0.3106 -17.5459  11.2406 C.3            1 <1>                0.0000
      6 C6          -0.7338 -18.5964  12.2888 C.3            1 <1>                0.0000
      7 C7           0.0827 -19.8512  12.1158 C.2            1 <1>                0.0000
      8 O8           1.0619 -19.8436  11.4001 O.2            1 <1>                0.0000
      9 N9          -0.2751 -20.9817  12.7563 N.am           1 <1>                0.0000
     10 C10          0.5633 -22.1880  12.6841 C.3            1 <1>                0.0000
     11 C11          0.8169 -22.6905  14.1093 C.3            1 <1>                0.0000
     12 N12         -0.4681 -22.8676  14.7987 N.3            1 <1>                0.0000
     13 C13         -1.1790 -21.5896  14.9373 C.3            1 <1>                0.0000
     14 C14         -1.5113 -21.0401  13.5509 C.3            1 <1>                0.0000
     15 H15          0.5578 -18.4919  15.3811 H              1 <1>                0.0000
     16 H16          0.0906 -19.8863  14.3782 H              1 <1>                0.0000
     17 H17          1.4353 -18.8362  13.8712 H              1 <1>                0.0000
     18 H18         -0.2776 -15.9844  14.2027 H              1 <1>                0.0000
     19 H19          1.1876 -16.7121  13.4752 H              1 <1>                0.0000
     20 H20         -1.3938 -15.8302  12.0708 H              1 <1>                0.0000
     21 H21          0.3054 -15.4749  11.6117 H              1 <1>                0.0000
     22 H22         -1.0111 -17.5307  10.4057 H              1 <1>                0.0000
     23 H23          0.7037 -17.7377  10.8906 H              1 <1>                0.0000
     24 H24         -1.7943 -18.8234  12.1790 H              1 <1>                0.0000
     25 H25          0.0479 -22.9583  12.1105 H              1 <1>                0.0000
     26 H26          1.5129 -21.9459  12.2068 H              1 <1>                0.0000
     27 H27          1.3434 -23.6441  14.0705 H              1 <1>                0.0000
     28 H28          1.4221 -21.9623  14.6494 H              1 <1>                0.0000
     29 H29         -2.1001 -21.7449  15.4989 H              1 <1>                0.0000
     30 H30         -0.5461 -20.8768  15.4659 H              1 <1>                0.0000
     31 H31         -1.9355 -20.0404  13.6453 H              1 <1>                0.0000
     32 H32         -2.2259 -21.6990  13.0576 H              1 <1>                0.0000
     33 H33         -1.0408 -23.5506  14.3259 H              1 <1>                0.0000
     34 H34         -1.3493 -17.9435  14.1279 H              1 <1>                0.0000
@<TRIPOS>BOND
    1    1    2 1     
    2    1   15 1     
    3    1   16 1     
    4    1   17 1     
    5    2    3 1     
    6    2    6 1     
    7    2   34 1     
    8    3    4 1     
    9    3   18 1     
   10    3   19 1     
   11    4    5 1     
   12    4   20 1     
   13    4   21 1     
   14    5    6 1     
   15    5   22 1     
   16    5   23 1     
   17    6    7 1     
   18    6   24 1     
   19    7    8 2     
   20    7    9 am    
   21    9   10 1     
   22    9   14 1     
   23   10   11 1     
   24   10   25 1     
   25   10   26 1     
   26   11   12 1     
   27   11   27 1     
   28   11   28 1     
   29   12   13 1     
   30   12   33 1     
   31   13   14 1     
   32   13   29 1     
   33   13   30 1     
   34   14   31 1     
   35   14   32 1     
@<TRIPOS>SUBSTRUCTURE
      1 ****           1
@<TRIPOS>SET
DONOR_HYDROGENS      STATIC     ATOMS    <user>   **** ""
2 34 33
ATOM$RED        STATIC     ATOMS    COLORGROUP SYSTEM
2 34 33
@<TRIPOS>COMMENT
> <Gold.Version>
2022.2.0

> <Gold.Id.Protein>
3pbl|protein|mol2

> <Gold.Protein.RotatedTorsions>
[ 1303 1298 1297 1294 ] final -118.16 input  179.99 | X-H torsion
[ 2461 2456 2455 2452 ] final -170.15 input   30.03 | X-H torsion
[ 2515 2510 2509 2506 ] final   89.52 input  -89.99 | X-H torsion
[ 3721 3712 3711 3710 ] final -166.33 input -179.91 | X-H torsion
[ 3841 3832 3831 3830 ] final  -17.27 input -179.91 | X-H torsion
[ 3767 3762 3761 3758 ] final   22.02 input  -89.99 | X-H torsion
[ 2472 2467 2466 2463 ] final  144.38 input  -89.97 | X-H torsion

> <Gold.Protein.ActiveResidues>
 VAL82   VAL86   LEU89   PHE106  VAL107  ASP110  VAL111  MET112  CYS114  THR115 
 CYS181  SER182  ILE183  PHE188  VAL189  ILE190  SER192  SER193  SER196  TRP342 
 PHE345  PHE346  HIS349  VAL350  TYR365  THR369  GLY372  TYR373 

> <Gold.Protein.RotatedAtoms>
    4.2078   -8.4798    4.0779 H   0  0  0  0  0  0  0  0  0  0  0  0  # atno 1303 bound_to 1298
    1.2952   -9.2603    8.3902 H   0  0  0  0  0  0  0  0  0  0  0  0  # atno 2461 bound_to 2456
   -5.5098   -5.2158    8.4934 H   0  0  0  0  0  0  0  0  0  0  0  0  # atno 2472 bound_to 2467
    2.0446   -7.7281    5.8350 H   0  0  0  0  0  0  0  0  0  0  0  0  # atno 2515 bound_to 2510
   -3.3385  -16.5480   13.7433 H   0  0  0  0  0  0  0  0  0  0  0  0  # atno 3721 bound_to 3712
   -5.0848  -22.9742   10.0658 H   0  0  0  0  0  0  0  0  0  0  0  0  # atno 3767 bound_to 3762
    1.6173  -20.2829    9.4500 H   0  0  0  0  0  0  0  0  0  0  0  0  # atno 3841 bound_to 3832
    4.7583   -9.7452    4.9508 LP  0  0  0  0  0  0  0  0  0  0  0  0  # atno 4297 bound_to 1298
    3.3961   -9.8966    4.0630 LP  0  0  0  0  0  0  0  0  0  0  0  0  # atno 4298 bound_to 1298
    2.0128   -8.1048    7.4863 LP  0  0  0  0  0  0  0  0  0  0  0  0  # atno 4299 bound_to 2456
    0.4298   -8.4432    7.2718 LP  0  0  0  0  0  0  0  0  0  0  0  0  # atno 4300 bound_to 2456
    2.7230   -8.0302    4.3809 LP  0  0  0  0  0  0  0  0  0  0  0  0  # atno 4301 bound_to 2510
    2.5293   -9.2412    5.4591 LP  0  0  0  0  0  0  0  0  0  0  0  0  # atno 4302 bound_to 2510
   -2.8193  -17.9655   13.1966 LP  0  0  0  0  0  0  0  0  0  0  0  0  # atno 4306 bound_to 3712
   -2.8541  -17.6559   14.7996 LP  0  0  0  0  0  0  0  0  0  0  0  0  # atno 4307 bound_to 3712
    2.4056  -19.7382    8.1624 LP  0  0  0  0  0  0  0  0  0  0  0  0  # atno 4314 bound_to 3832
    2.9555  -21.0372    8.9850 LP  0  0  0  0  0  0  0  0  0  0  0  0  # atno 4315 bound_to 3832
   -5.1350  -21.9147   11.3074 LP  0  0  0  0  0  0  0  0  0  0  0  0  # atno 4318 bound_to 3762
   -3.9077  -22.9863   11.1976 LP  0  0  0  0  0  0  0  0  0  0  0  0  # atno 4319 bound_to 3762
   -4.0854   -4.8104    7.8056 LP  0  0  0  0  0  0  0  0  0  0  0  0  # atno 4320 bound_to 2467
   -4.1219   -5.3674    9.3402 LP  0  0  0  0  0  0  0  0  0  0  0  0  # atno 4321 bound_to 2467

> <Gold.Score>
     Score     S(PLP)   S(hbond)     S(cho)   S(metal)  DE(clash)   DE(tors)     intcor
     35.05     -29.49       1.86       0.00       0.00       0.00       0.31       0.59

> <Gold.PLP.Fitness>
35.0466

> <Gold.PLP.PLP>
-29.4926

> <Gold.PLP.part.hbond>
-2.0000

> <Gold.PLP.part.metal>
0.0000

> <Gold.PLP.part.buried>
-3.3145

> <Gold.PLP.part.nonpolar>
-24.6818

> <Gold.PLP.part.repulsive>
0.1144

> <Gold.PLP.ligand.clash>
0.0000

> <Gold.PLP.ligand.torsion>
0.3124

> <Gold.PLP.Chemscore.Hbond>
1.8640

> <Gold.PLP.Chemscore.CHOScore>
0.0000

> <Gold.PLP.Chemscore.Metal>
0.0000

> <Gold.Chemscore.Hbonds>
donor molecule, donor type, donor heavy atom, donor atom, acceptor molecule, acceptor atom, score
      L1  H     2    34       P1  3712  0.86
      P1  H  3832  3841       L1     8  1.00

> <Gold.PLP.Chemscore.Internal.Correction>
0.5868

