#       Name:                EN300-110418_i004
#       Creating user name   fsindt
#       Creation time:       Tue Feb 28 15:25:01 2023


#       File generated by GOLD software.
#

@<TRIPOS>MOLECULE
EN300-110418_i004|amine_7|mol2|6400|dock6
    34    35     1
SMALL
USER_CHARGES


@<TRIPOS>ATOM
      1 C1          -0.6051 -17.5250  11.6709 C.3            1 <1>                0.0000
      2 N2           0.8131 -17.3043  11.9838 N.4            1 <1>                1.0000
      3 C3           1.0388 -15.8753  12.2888 C.3            1 <1>                0.0000
      4 C4           2.1099 -15.8741  13.4079 C.3            1 <1>                0.0000
      5 C5           1.6953 -17.1162  14.2398 C.3            1 <1>                0.0000
      6 C6           1.1905 -18.1018  13.1651 C.3            1 <1>                0.0000
      7 C7          -0.0097 -18.8528  13.6814 C.2            1 <1>                0.0000
      8 O8          -0.5590 -18.4911  14.7005 O.2            1 <1>                0.0000
      9 N9          -0.4727 -19.9262  13.0107 N.am           1 <1>                0.0000
     10 C10          0.2376 -20.4437  11.8314 C.3            1 <1>                0.0000
     11 C11          0.4564 -21.9491  12.0168 C.3            1 <1>                0.0000
     12 N12         -0.8314 -22.5967  12.2999 N.3            1 <1>                0.0000
     13 C13         -1.4068 -22.1098  13.5608 C.3            1 <1>                0.0000
     14 C14         -1.6986 -20.6148  13.4423 C.3            1 <1>                0.0000
     15 H15         -0.8521 -17.0267  10.7333 H              1 <1>                0.0000
     16 H16         -0.7938 -18.5942  11.5747 H              1 <1>                0.0000
     17 H17         -1.2216 -17.1178  12.4722 H              1 <1>                0.0000
     18 H18          1.4105 -15.3532  11.4071 H              1 <1>                0.0000
     19 H19          0.1179 -15.4132  12.6444 H              1 <1>                0.0000
     20 H20          3.1095 -15.9989  12.9917 H              1 <1>                0.0000
     21 H21          2.0484 -14.9651  14.0062 H              1 <1>                0.0000
     22 H22          2.5538 -17.5296  14.7691 H              1 <1>                0.0000
     23 H23          0.8963 -16.8638  14.9371 H              1 <1>                0.0000
     24 H24          1.9836 -18.8017  12.9020 H              1 <1>                0.0000
     25 H25         -0.3605 -20.2680  10.9374 H              1 <1>                0.0000
     26 H26          1.2009 -19.9428  11.7352 H              1 <1>                0.0000
     27 H27          0.8826 -22.3695  11.1059 H              1 <1>                0.0000
     28 H28          1.1391 -22.1175  12.8496 H              1 <1>                0.0000
     29 H29         -2.3320 -22.6470  13.7696 H              1 <1>                0.0000
     30 H30         -0.6982 -22.2761  14.3721 H              1 <1>                0.0000
     31 H31         -2.0176 -20.2263  14.4095 H              1 <1>                0.0000
     32 H32         -2.4826 -20.4523  12.7027 H              1 <1>                0.0000
     33 H33         -1.4764 -22.4685  11.5347 H              1 <1>                0.0000
     34 H34          1.3818 -17.5774  11.1964 H              1 <1>                0.0000
@<TRIPOS>BOND
    1    1    2 1     
    2    1   15 1     
    3    1   16 1     
    4    1   17 1     
    5    2    3 1     
    6    2    6 1     
    7    2   34 1     
    8    3    4 1     
    9    3   18 1     
   10    3   19 1     
   11    4    5 1     
   12    4   20 1     
   13    4   21 1     
   14    5    6 1     
   15    5   22 1     
   16    5   23 1     
   17    6    7 1     
   18    6   24 1     
   19    7    8 2     
   20    7    9 am    
   21    9   10 1     
   22    9   14 1     
   23   10   11 1     
   24   10   25 1     
   25   10   26 1     
   26   11   12 1     
   27   11   27 1     
   28   11   28 1     
   29   12   13 1     
   30   12   33 1     
   31   13   14 1     
   32   13   29 1     
   33   13   30 1     
   34   14   31 1     
   35   14   32 1     
@<TRIPOS>SUBSTRUCTURE
      1 ****           1
@<TRIPOS>SET
DONOR_HYDROGENS      STATIC     ATOMS    <user>   **** ""
2 34 33
ATOM$RED        STATIC     ATOMS    COLORGROUP SYSTEM
2 34 33
@<TRIPOS>COMMENT
> <Gold.Version>
2022.2.0

> <Gold.Id.Protein>
3pbl|protein|mol2

> <Gold.Protein.RotatedTorsions>
[ 1303 1298 1297 1294 ] final  168.24 input  179.99 | X-H torsion
[ 2461 2456 2455 2452 ] final  -45.68 input   30.03 | X-H torsion
[ 2515 2510 2509 2506 ] final  114.80 input  -89.99 | X-H torsion
[ 3721 3712 3711 3710 ] final  -13.50 input -179.91 | X-H torsion
[ 3841 3832 3831 3830 ] final  -50.81 input -179.91 | X-H torsion
[ 3767 3762 3761 3758 ] final  -78.91 input  -89.99 | X-H torsion
[ 2472 2467 2466 2463 ] final -132.47 input  -89.97 | X-H torsion

> <Gold.Protein.ActiveResidues>
 VAL82   VAL86   LEU89   PHE106  VAL107  ASP110  VAL111  MET112  CYS114  THR115 
 CYS181  SER182  ILE183  PHE188  VAL189  ILE190  SER192  SER193  SER196  TRP342 
 PHE345  PHE346  HIS349  VAL350  TYR365  THR369  GLY372  TYR373 

> <Gold.Protein.RotatedAtoms>
    4.8995   -9.0375    4.7750 H   0  0  0  0  0  0  0  0  0  0  0  0  # atno 1303 bound_to 1298
    0.4643   -8.3917    7.2324 H   0  0  0  0  0  0  0  0  0  0  0  0  # atno 2461 bound_to 2456
   -4.7050   -5.4610    9.4196 H   0  0  0  0  0  0  0  0  0  0  0  0  # atno 2472 bound_to 2467
    2.0340   -8.0845    6.0423 H   0  0  0  0  0  0  0  0  0  0  0  0  # atno 2515 bound_to 2510
   -2.5266  -17.8603   14.4173 H   0  0  0  0  0  0  0  0  0  0  0  0  # atno 3721 bound_to 3712
   -5.3334  -21.9508   11.0691 H   0  0  0  0  0  0  0  0  0  0  0  0  # atno 3767 bound_to 3762
    1.5778  -19.9000    9.1316 H   0  0  0  0  0  0  0  0  0  0  0  0  # atno 3841 bound_to 3832
    3.8510  -10.2634    4.5214 LP  0  0  0  0  0  0  0  0  0  0  0  0  # atno 4297 bound_to 1298
    3.6114   -8.8206    3.7951 LP  0  0  0  0  0  0  0  0  0  0  0  0  # atno 4298 bound_to 1298
    1.2239   -9.2734    8.3783 LP  0  0  0  0  0  0  0  0  0  0  0  0  # atno 4299 bound_to 2456
    2.0494   -8.1430    7.5373 LP  0  0  0  0  0  0  0  0  0  0  0  0  # atno 4300 bound_to 2456
    2.5756   -7.6860    4.5544 LP  0  0  0  0  0  0  0  0  0  0  0  0  # atno 4301 bound_to 2510
    2.6873   -9.2287    5.0781 LP  0  0  0  0  0  0  0  0  0  0  0  0  # atno 4302 bound_to 2510
   -3.5077  -16.5995   14.2570 LP  0  0  0  0  0  0  0  0  0  0  0  0  # atno 4306 bound_to 3712
   -3.1030  -17.5068   12.9610 LP  0  0  0  0  0  0  0  0  0  0  0  0  # atno 4307 bound_to 3712
    2.8546  -20.0599    8.1724 LP  0  0  0  0  0  0  0  0  0  0  0  0  # atno 4314 bound_to 3832
    2.5522  -21.1578    9.3428 LP  0  0  0  0  0  0  0  0  0  0  0  0  # atno 4315 bound_to 3832
   -3.9611  -22.7665   11.4131 LP  0  0  0  0  0  0  0  0  0  0  0  0  # atno 4318 bound_to 3762
   -4.8332  -23.1575   10.0890 LP  0  0  0  0  0  0  0  0  0  0  0  0  # atno 4319 bound_to 3762
   -5.3100   -5.0054    7.9729 LP  0  0  0  0  0  0  0  0  0  0  0  0  # atno 4320 bound_to 2467
   -3.7020   -4.9272    8.2468 LP  0  0  0  0  0  0  0  0  0  0  0  0  # atno 4321 bound_to 2467

> <Gold.Score>
     Score     S(PLP)   S(hbond)     S(cho)   S(metal)  DE(clash)   DE(tors)     intcor
     38.32     -29.33       3.00       0.00       0.00       0.00       0.30       0.59

> <Gold.PLP.Fitness>
38.3170

> <Gold.PLP.PLP>
-29.3321

> <Gold.PLP.part.hbond>
-2.0000

> <Gold.PLP.part.metal>
0.0000

> <Gold.PLP.part.buried>
-3.9269

> <Gold.PLP.part.nonpolar>
-24.3403

> <Gold.PLP.part.repulsive>
0.0113

> <Gold.PLP.ligand.clash>
0.0000

> <Gold.PLP.ligand.torsion>
0.3010

> <Gold.PLP.Chemscore.Hbond>
3.0000

> <Gold.PLP.Chemscore.CHOScore>
0.0000

> <Gold.PLP.Chemscore.Metal>
0.0000

> <Gold.Chemscore.Hbonds>
donor molecule, donor type, donor heavy atom, donor atom, acceptor molecule, acceptor atom, score
      L1  H     2    34       P1  1227  2.00
      P1  H  3712  3721       L1     8  1.00

> <Gold.PLP.Chemscore.Internal.Correction>
0.5868

