#       Name:                EN300-110418_i004
#       Creating user name   fsindt
#       Creation time:       Tue Feb 28 15:25:03 2023


#       File generated by GOLD software.
#

@<TRIPOS>MOLECULE
EN300-110418_i004|amine_7|mol2|6400|dock9
    34    35     1
SMALL
USER_CHARGES


@<TRIPOS>ATOM
      1 C1           2.4105 -14.9453  11.4548 C.3            1 <1>                0.0000
      2 N2           1.8569 -16.2627  11.7956 N.4            1 <1>                1.0000
      3 C3           2.2909 -16.6481  13.1553 C.3            1 <1>                0.0000
      4 C4           1.0796 -17.4023  13.7583 C.3            1 <1>                0.0000
      5 C5          -0.1120 -16.5943  13.1802 C.3            1 <1>                0.0000
      6 C6           0.3838 -16.2030  11.7722 C.3            1 <1>                0.0000
      7 C7          -0.0674 -14.8039  11.4402 C.2            1 <1>                0.0000
      8 O8          -0.4005 -14.0475  12.3279 O.2            1 <1>                0.0000
      9 N9          -0.1008 -14.3933  10.1570 N.am           1 <1>                0.0000
     10 C10         -0.4386 -13.0026   9.8179 C.3            1 <1>                0.0000
     11 C11          0.6434 -12.4532   8.8821 C.3            1 <1>                0.0000
     12 N12          0.7947 -13.3538   7.7315 N.3            1 <1>                0.0000
     13 C13          1.2563 -14.6833   8.1526 C.3            1 <1>                0.0000
     14 C14          0.2054 -15.3226   9.0589 C.3            1 <1>                0.0000
     15 H15          3.4938 -15.0199  11.3601 H              1 <1>                0.0000
     16 H16          1.9858 -14.6061  10.5100 H              1 <1>                0.0000
     17 H17          2.1626 -14.2325  12.2412 H              1 <1>                0.0000
     18 H18          3.1596 -17.3046  13.1045 H              1 <1>                0.0000
     19 H19          2.5184 -15.7612  13.7467 H              1 <1>                0.0000
     20 H20          1.0533 -18.4364  13.4149 H              1 <1>                0.0000
     21 H21          1.0923 -17.3541  14.8471 H              1 <1>                0.0000
     22 H22         -1.0043 -17.2168  13.1154 H              1 <1>                0.0000
     23 H23         -0.3033 -15.7059  13.7821 H              1 <1>                0.0000
     24 H24         -0.0040 -16.9050  11.0341 H              1 <1>                0.0000
     25 H25         -1.4060 -12.9725   9.3166 H              1 <1>                0.0000
     26 H26         -0.4754 -12.4026  10.7272 H              1 <1>                0.0000
     27 H27          0.3533 -11.4623   8.5328 H              1 <1>                0.0000
     28 H28          1.5895 -12.3872   9.4193 H              1 <1>                0.0000
     29 H29          1.4106 -15.3097   7.2741 H              1 <1>                0.0000
     30 H30          2.1939 -14.5863   8.6999 H              1 <1>                0.0000
     31 H31          0.5919 -16.2573   9.4650 H              1 <1>                0.0000
     32 H32         -0.7022 -15.5161   8.4871 H              1 <1>                0.0000
     33 H33         -0.0653 -13.4187   7.2077 H              1 <1>                0.0000
     34 H34          2.1775 -16.9492  11.1294 H              1 <1>                0.0000
@<TRIPOS>BOND
    1    1    2 1     
    2    1   15 1     
    3    1   16 1     
    4    1   17 1     
    5    2    3 1     
    6    2    6 1     
    7    2   34 1     
    8    3    4 1     
    9    3   18 1     
   10    3   19 1     
   11    4    5 1     
   12    4   20 1     
   13    4   21 1     
   14    5    6 1     
   15    5   22 1     
   16    5   23 1     
   17    6    7 1     
   18    6   24 1     
   19    7    8 2     
   20    7    9 am    
   21    9   10 1     
   22    9   14 1     
   23   10   11 1     
   24   10   25 1     
   25   10   26 1     
   26   11   12 1     
   27   11   27 1     
   28   11   28 1     
   29   12   13 1     
   30   12   33 1     
   31   13   14 1     
   32   13   29 1     
   33   13   30 1     
   34   14   31 1     
   35   14   32 1     
@<TRIPOS>SUBSTRUCTURE
      1 ****           1
@<TRIPOS>SET
DONOR_HYDROGENS      STATIC     ATOMS    <user>   **** ""
2 34 33
ATOM$RED        STATIC     ATOMS    COLORGROUP SYSTEM
2 34 33
@<TRIPOS>COMMENT
> <Gold.Version>
2022.2.0

> <Gold.Id.Protein>
3pbl|protein|mol2

> <Gold.Protein.RotatedTorsions>
[ 1303 1298 1297 1294 ] final  -77.15 input  179.99 | X-H torsion
[ 2461 2456 2455 2452 ] final   16.01 input   30.03 | X-H torsion
[ 2515 2510 2509 2506 ] final  -53.60 input  -89.99 | X-H torsion
[ 3721 3712 3711 3710 ] final -146.02 input -179.91 | X-H torsion
[ 3841 3832 3831 3830 ] final  -65.77 input -179.91 | X-H torsion
[ 3767 3762 3761 3758 ] final -129.69 input  -89.99 | X-H torsion
[ 2472 2467 2466 2463 ] final  172.81 input  -89.97 | X-H torsion

> <Gold.Protein.ActiveResidues>
 VAL82   VAL86   LEU89   PHE106  VAL107  ASP110  VAL111  MET112  CYS114  THR115 
 CYS181  SER182  ILE183  PHE188  VAL189  ILE190  SER192  SER193  SER196  TRP342 
 PHE345  PHE346  HIS349  VAL350  TYR365  THR369  GLY372  TYR373 

> <Gold.Protein.RotatedAtoms>
    3.6704   -8.7565    3.8118 H   0  0  0  0  0  0  0  0  0  0  0  0  # atno 1303 bound_to 1298
    1.2950   -7.9279    7.0591 H   0  0  0  0  0  0  0  0  0  0  0  0  # atno 2461 bound_to 2456
   -5.4068   -5.3587    8.9215 H   0  0  0  0  0  0  0  0  0  0  0  0  # atno 2472 bound_to 2467
    2.8096   -8.3975    4.3639 H   0  0  0  0  0  0  0  0  0  0  0  0  # atno 2515 bound_to 2510
   -3.3179  -16.5366   14.0479 H   0  0  0  0  0  0  0  0  0  0  0  0  # atno 3721 bound_to 3712
   -4.7136  -22.0237   11.5833 H   0  0  0  0  0  0  0  0  0  0  0  0  # atno 3767 bound_to 3762
    1.6453  -19.7622    8.9665 H   0  0  0  0  0  0  0  0  0  0  0  0  # atno 3841 bound_to 3832
    4.9095   -9.1173    4.8122 LP  0  0  0  0  0  0  0  0  0  0  0  0  # atno 4297 bound_to 1298
    3.7825  -10.2477    4.4677 LP  0  0  0  0  0  0  0  0  0  0  0  0  # atno 4298 bound_to 1298
    0.4298   -9.0472    7.8752 LP  0  0  0  0  0  0  0  0  0  0  0  0  # atno 4299 bound_to 2456
    2.0129   -8.8329    8.2137 LP  0  0  0  0  0  0  0  0  0  0  0  0  # atno 4300 bound_to 2456
    2.3676   -9.0997    5.7701 LP  0  0  0  0  0  0  0  0  0  0  0  0  # atno 4301 bound_to 2510
    2.1194   -7.5019    5.5417 LP  0  0  0  0  0  0  0  0  0  0  0  0  # atno 4302 bound_to 2510
   -2.9743  -17.7222   13.0211 LP  0  0  0  0  0  0  0  0  0  0  0  0  # atno 4306 bound_to 3712
   -2.7229  -17.9123   14.6234 LP  0  0  0  0  0  0  0  0  0  0  0  0  # atno 4307 bound_to 3712
    2.9979  -20.2478    8.2519 LP  0  0  0  0  0  0  0  0  0  0  0  0  # atno 4314 bound_to 3832
    2.3309  -21.1291    9.4540 LP  0  0  0  0  0  0  0  0  0  0  0  0  # atno 4315 bound_to 3832
   -4.0122  -23.2540   10.7702 LP  0  0  0  0  0  0  0  0  0  0  0  0  # atno 4318 bound_to 3762
   -5.4015  -22.5972   10.2178 LP  0  0  0  0  0  0  0  0  0  0  0  0  # atno 4319 bound_to 3762
   -4.5256   -4.8072    7.6623 LP  0  0  0  0  0  0  0  0  0  0  0  0  # atno 4320 bound_to 2467
   -3.7847   -5.2277    9.0554 LP  0  0  0  0  0  0  0  0  0  0  0  0  # atno 4321 bound_to 2467

> <Gold.Score>
     Score     S(PLP)   S(hbond)     S(cho)   S(metal)  DE(clash)   DE(tors)     intcor
     40.07     -34.67       2.00       0.00       0.00       0.00       0.59       0.59

> <Gold.PLP.Fitness>
40.0684

> <Gold.PLP.PLP>
-34.6655

> <Gold.PLP.part.hbond>
-1.0000

> <Gold.PLP.part.metal>
0.0000

> <Gold.PLP.part.buried>
-3.0233

> <Gold.PLP.part.nonpolar>
-31.6156

> <Gold.PLP.part.repulsive>
0.0748

> <Gold.PLP.ligand.clash>
0.0000

> <Gold.PLP.ligand.torsion>
0.5919

> <Gold.PLP.Chemscore.Hbond>
2.0000

> <Gold.PLP.Chemscore.CHOScore>
0.0000

> <Gold.PLP.Chemscore.Metal>
0.0000

> <Gold.Chemscore.Hbonds>
donor molecule, donor type, donor heavy atom, donor atom, acceptor molecule, acceptor atom, score
      L1  H     2    34       P1  1227  2.00

> <Gold.PLP.Chemscore.Internal.Correction>
0.5868

