#       Name:                EN300-110418_i004
#       Creating user name   fsindt
#       Creation time:       Tue Feb 28 15:25:04 2023


#       File generated by GOLD software.
#

@<TRIPOS>MOLECULE
EN300-110418_i004|amine_7|mol2|6400|dock11
    34    35     1
SMALL
USER_CHARGES


@<TRIPOS>ATOM
      1 C1           1.9206 -16.3327  12.9076 C.3            1 <1>                0.0000
      2 N2           1.6812 -17.4797  12.0216 N.4            1 <1>                1.0000
      3 C3           1.8262 -18.7372  12.7853 C.3            1 <1>                0.0000
      4 C4           0.7544 -19.6858  12.1927 C.3            1 <1>                0.0000
      5 C5          -0.4148 -18.7040  11.9170 C.3            1 <1>                0.0000
      6 C6           0.3103 -17.4129  11.4829 C.3            1 <1>                0.0000
      7 C7          -0.4033 -16.2103  12.0448 C.2            1 <1>                0.0000
      8 O8          -1.2617 -16.3545  12.8894 O.2            1 <1>                0.0000
      9 N9          -0.0877 -14.9747  11.6088 N.am           1 <1>                0.0000
     10 C10          0.8753 -14.7837  10.5135 C.3            1 <1>                0.0000
     11 C11          0.2406 -13.8675   9.4618 C.3            1 <1>                0.0000
     12 N12         -0.2190 -12.6308  10.1075 N.3            1 <1>                0.0000
     13 C13         -1.2697 -12.9049  11.0970 C.3            1 <1>                0.0000
     14 C14         -0.7015 -13.7819  12.2117 C.3            1 <1>                0.0000
     15 H15          2.9670 -16.3213  13.2126 H              1 <1>                0.0000
     16 H16          1.6865 -15.4093  12.3779 H              1 <1>                0.0000
     17 H17          1.2859 -16.4164  13.7898 H              1 <1>                0.0000
     18 H18          2.8229 -19.1549  12.6430 H              1 <1>                0.0000
     19 H19          1.6346 -18.5624  13.8440 H              1 <1>                0.0000
     20 H20          1.1063 -20.1433  11.2682 H              1 <1>                0.0000
     21 H21          0.4629 -20.4465  12.9169 H              1 <1>                0.0000
     22 H22         -1.0505 -19.0776  11.1142 H              1 <1>                0.0000
     23 H23         -0.9965 -18.5333  12.8229 H              1 <1>                0.0000
     24 H24          0.3419 -17.3532  10.3950 H              1 <1>                0.0000
     25 H25          1.7835 -14.3223  10.9009 H              1 <1>                0.0000
     26 H26          1.1139 -15.7474  10.0636 H              1 <1>                0.0000
     27 H27          0.9786 -13.6260   8.6969 H              1 <1>                0.0000
     28 H28         -0.6076 -14.3747   9.0019 H              1 <1>                0.0000
     29 H29         -1.6268 -11.9651  11.5180 H              1 <1>                0.0000
     30 H30         -2.0968 -13.4254  10.6144 H              1 <1>                0.0000
     31 H31         -1.5035 -14.0820  12.8862 H              1 <1>                0.0000
     32 H32          0.0567 -13.2266  12.7639 H              1 <1>                0.0000
     33 H33          0.5524 -12.1339  10.5274 H              1 <1>                0.0000
     34 H34          2.3439 -17.4661  11.2608 H              1 <1>                0.0000
@<TRIPOS>BOND
    1    1    2 1     
    2    1   15 1     
    3    1   16 1     
    4    1   17 1     
    5    2    3 1     
    6    2    6 1     
    7    2   34 1     
    8    3    4 1     
    9    3   18 1     
   10    3   19 1     
   11    4    5 1     
   12    4   20 1     
   13    4   21 1     
   14    5    6 1     
   15    5   22 1     
   16    5   23 1     
   17    6    7 1     
   18    6   24 1     
   19    7    8 2     
   20    7    9 am    
   21    9   10 1     
   22    9   14 1     
   23   10   11 1     
   24   10   25 1     
   25   10   26 1     
   26   11   12 1     
   27   11   27 1     
   28   11   28 1     
   29   12   13 1     
   30   12   33 1     
   31   13   14 1     
   32   13   29 1     
   33   13   30 1     
   34   14   31 1     
   35   14   32 1     
@<TRIPOS>SUBSTRUCTURE
      1 ****           1
@<TRIPOS>SET
DONOR_HYDROGENS      STATIC     ATOMS    <user>   **** ""
2 34 33
ATOM$RED        STATIC     ATOMS    COLORGROUP SYSTEM
2 34 33
@<TRIPOS>COMMENT
> <Gold.Version>
2022.2.0

> <Gold.Id.Protein>
3pbl|protein|mol2

> <Gold.Protein.RotatedTorsions>
[ 1303 1298 1297 1294 ] final  116.56 input  179.99 | X-H torsion
[ 2461 2456 2455 2452 ] final -161.24 input   30.03 | X-H torsion
[ 2515 2510 2509 2506 ] final  129.92 input  -89.99 | X-H torsion
[ 3721 3712 3711 3710 ] final  118.13 input -179.91 | X-H torsion
[ 3841 3832 3831 3830 ] final   -0.68 input -179.91 | X-H torsion
[ 3767 3762 3761 3758 ] final  122.02 input  -89.99 | X-H torsion
[ 2472 2467 2466 2463 ] final  109.74 input  -89.97 | X-H torsion

> <Gold.Protein.ActiveResidues>
 VAL82   VAL86   LEU89   PHE106  VAL107  ASP110  VAL111  MET112  CYS114  THR115 
 CYS181  SER182  ILE183  PHE188  VAL189  ILE190  SER192  SER193  SER196  TRP342 
 PHE345  PHE346  HIS349  VAL350  TYR365  THR369  GLY372  TYR373 

> <Gold.Protein.RotatedAtoms>
    4.7120   -9.8187    4.9478 H   0  0  0  0  0  0  0  0  0  0  0  0  # atno 1303 bound_to 1298
    1.1529   -9.2827    8.3629 H   0  0  0  0  0  0  0  0  0  0  0  0  # atno 2461 bound_to 2456
   -5.3316   -5.0180    7.9990 H   0  0  0  0  0  0  0  0  0  0  0  0  # atno 2472 bound_to 2467
    2.0646   -8.3253    6.0928 H   0  0  0  0  0  0  0  0  0  0  0  0  # atno 2515 bound_to 2510
   -2.9949  -17.2577   13.0334 H   0  0  0  0  0  0  0  0  0  0  0  0  # atno 3721 bound_to 3712
   -3.9456  -23.1734   10.9317 H   0  0  0  0  0  0  0  0  0  0  0  0  # atno 3767 bound_to 3762
    1.7309  -20.4790    9.5552 H   0  0  0  0  0  0  0  0  0  0  0  0  # atno 3841 bound_to 3832
    3.3699   -9.8270    4.0177 LP  0  0  0  0  0  0  0  0  0  0  0  0  # atno 4297 bound_to 1298
    4.2801   -8.4755    4.1258 LP  0  0  0  0  0  0  0  0  0  0  0  0  # atno 4298 bound_to 1298
    2.0810   -8.1839    7.5891 LP  0  0  0  0  0  0  0  0  0  0  0  0  # atno 4299 bound_to 2456
    0.5038   -8.3418    7.1963 LP  0  0  0  0  0  0  0  0  0  0  0  0  # atno 4300 bound_to 2456
    2.4722   -7.5361    4.7229 LP  0  0  0  0  0  0  0  0  0  0  0  0  # atno 4301 bound_to 2510
    2.7601   -9.1377    4.8591 LP  0  0  0  0  0  0  0  0  0  0  0  0  # atno 4302 bound_to 2510
   -2.6344  -18.1097   14.3457 LP  0  0  0  0  0  0  0  0  0  0  0  0  # atno 4306 bound_to 3712
   -3.4356  -16.6922   14.4701 LP  0  0  0  0  0  0  0  0  0  0  0  0  # atno 4307 bound_to 3712
    2.1548  -19.6559    8.2441 LP  0  0  0  0  0  0  0  0  0  0  0  0  # atno 4314 bound_to 3832
    3.0751  -20.8931    8.7819 LP  0  0  0  0  0  0  0  0  0  0  0  0  # atno 4315 bound_to 3832
   -5.3048  -22.7420   10.1357 LP  0  0  0  0  0  0  0  0  0  0  0  0  # atno 4318 bound_to 3762
   -4.8767  -21.9598   11.5037 LP  0  0  0  0  0  0  0  0  0  0  0  0  # atno 4319 bound_to 3762
   -3.7161   -4.9172    8.2148 LP  0  0  0  0  0  0  0  0  0  0  0  0  # atno 4320 bound_to 2467
   -4.6694   -5.4583    9.4252 LP  0  0  0  0  0  0  0  0  0  0  0  0  # atno 4321 bound_to 2467

> <Gold.Score>
     Score     S(PLP)   S(hbond)     S(cho)   S(metal)  DE(clash)   DE(tors)     intcor
     38.64     -31.44       2.40       0.00       0.00       0.00       0.29       0.59

> <Gold.PLP.Fitness>
38.6442

> <Gold.PLP.PLP>
-31.4442

> <Gold.PLP.part.hbond>
-2.0000

> <Gold.PLP.part.metal>
0.0000

> <Gold.PLP.part.buried>
-0.6244

> <Gold.PLP.part.nonpolar>
-29.1016

> <Gold.PLP.part.repulsive>
0.0911

> <Gold.PLP.ligand.clash>
0.0000

> <Gold.PLP.ligand.torsion>
0.2934

> <Gold.PLP.Chemscore.Hbond>
2.4000

> <Gold.PLP.Chemscore.CHOScore>
0.0000

> <Gold.PLP.Chemscore.Metal>
0.0000

> <Gold.Chemscore.Hbonds>
donor molecule, donor type, donor heavy atom, donor atom, acceptor molecule, acceptor atom, score
      L1  H     2    34       P1  1227  2.00
      P1  H  3712  3721       L1     8  0.40

> <Gold.PLP.Chemscore.Internal.Correction>
0.5868

