#       Name:                EN300-110418_i004
#       Creating user name   fsindt
#       Creation time:       Tue Feb 28 15:25:07 2023


#       File generated by GOLD software.
#

@<TRIPOS>MOLECULE
EN300-110418_i004|amine_7|mol2|6400|dock17
    34    35     1
SMALL
USER_CHARGES


@<TRIPOS>ATOM
      1 C1          -0.6399 -10.1642  10.7330 C.3            1 <1>                0.0000
      2 N2          -2.0037 -10.5626  11.1062 N.4            1 <1>                1.0000
      3 C3          -2.9806  -9.6671  10.4508 C.3            1 <1>                0.0000
      4 C4          -4.1809 -10.5810  10.0987 C.3            1 <1>                0.0000
      5 C5          -3.4650 -11.8974   9.6968 C.3            1 <1>                0.0000
      6 C6          -2.2577 -11.9437  10.6567 C.3            1 <1>                0.0000
      7 C7          -1.0481 -12.4782   9.9340 C.2            1 <1>                0.0000
      8 O8          -0.8135 -12.1218   8.7986 O.2            1 <1>                0.0000
      9 N9          -0.2271 -13.3523  10.5491 N.am           1 <1>                0.0000
     10 C10         -0.5472 -13.8766  11.8855 C.3            1 <1>                0.0000
     11 C11         -0.4507 -15.4054  11.8445 C.3            1 <1>                0.0000
     12 N12          0.8659 -15.7959  11.3230 N.3            1 <1>                0.0000
     13 C13          1.0480 -15.3384   9.9390 C.3            1 <1>                0.0000
     14 C14          1.0098 -13.8115   9.8994 C.3            1 <1>                0.0000
     15 H15         -0.4151  -9.1891  11.1653 H              1 <1>                0.0000
     16 H16          0.0697 -10.9008  11.1096 H              1 <1>                0.0000
     17 H17         -0.5624 -10.1070   9.6473 H              1 <1>                0.0000
     18 H18         -3.2921  -8.8788  11.1361 H              1 <1>                0.0000
     19 H19         -2.5529  -9.2368   9.5452 H              1 <1>                0.0000
     20 H20         -4.8223 -10.7346  10.9664 H              1 <1>                0.0000
     21 H21         -4.7490 -10.1743   9.2621 H              1 <1>                0.0000
     22 H22         -4.1178 -12.7554   9.8568 H              1 <1>                0.0000
     23 H23         -3.1314 -11.8536   8.6599 H              1 <1>                0.0000
     24 H24         -2.4896 -12.5758  11.5139 H              1 <1>                0.0000
     25 H25          0.1635 -13.4842  12.6127 H              1 <1>                0.0000
     26 H26         -1.5592 -13.5809  12.1620 H              1 <1>                0.0000
     27 H27         -0.5766 -15.8049  12.8507 H              1 <1>                0.0000
     28 H28         -1.2312 -15.8018  11.1951 H              1 <1>                0.0000
     29 H29          2.0092 -15.6895   9.5635 H              1 <1>                0.0000
     30 H30          0.2467 -15.7358   9.3162 H              1 <1>                0.0000
     31 H31          1.0295 -13.4716   8.8639 H              1 <1>                0.0000
     32 H32          1.8693 -13.4098  10.4360 H              1 <1>                0.0000
     33 H33          1.6061 -15.4538  11.9173 H              1 <1>                0.0000
     34 H34         -2.1120 -10.5082  12.1079 H              1 <1>                0.0000
@<TRIPOS>BOND
    1    1    2 1     
    2    1   15 1     
    3    1   16 1     
    4    1   17 1     
    5    2    3 1     
    6    2    6 1     
    7    2   34 1     
    8    3    4 1     
    9    3   18 1     
   10    3   19 1     
   11    4    5 1     
   12    4   20 1     
   13    4   21 1     
   14    5    6 1     
   15    5   22 1     
   16    5   23 1     
   17    6    7 1     
   18    6   24 1     
   19    7    8 2     
   20    7    9 am    
   21    9   10 1     
   22    9   14 1     
   23   10   11 1     
   24   10   25 1     
   25   10   26 1     
   26   11   12 1     
   27   11   27 1     
   28   11   28 1     
   29   12   13 1     
   30   12   33 1     
   31   13   14 1     
   32   13   29 1     
   33   13   30 1     
   34   14   31 1     
   35   14   32 1     
@<TRIPOS>SUBSTRUCTURE
      1 ****           1
@<TRIPOS>SET
DONOR_HYDROGENS      STATIC     ATOMS    <user>   **** ""
2 34 33
ATOM$RED        STATIC     ATOMS    COLORGROUP SYSTEM
2 34 33
@<TRIPOS>COMMENT
> <Gold.Version>
2022.2.0

> <Gold.Id.Protein>
3pbl|protein|mol2

> <Gold.Protein.RotatedTorsions>
[ 1303 1298 1297 1294 ] final -120.32 input  179.99 | X-H torsion
[ 2461 2456 2455 2452 ] final -157.02 input   30.03 | X-H torsion
[ 2515 2510 2509 2506 ] final -136.55 input  -89.99 | X-H torsion
[ 3721 3712 3711 3710 ] final   15.08 input -179.91 | X-H torsion
[ 3841 3832 3831 3830 ] final   -9.63 input -179.91 | X-H torsion
[ 3767 3762 3761 3758 ] final  -78.43 input  -89.99 | X-H torsion
[ 2472 2467 2466 2463 ] final   26.51 input  -89.97 | X-H torsion

> <Gold.Protein.ActiveResidues>
 VAL82   VAL86   LEU89   PHE106  VAL107  ASP110  VAL111  MET112  CYS114  THR115 
 CYS181  SER182  ILE183  PHE188  VAL189  ILE190  SER192  SER193  SER196  TRP342 
 PHE345  PHE346  HIS349  VAL350  TYR365  THR369  GLY372  TYR373 

> <Gold.Protein.RotatedAtoms>
    4.2374   -8.4772    4.0975 H   0  0  0  0  0  0  0  0  0  0  0  0  # atno 1303 bound_to 1298
    1.0863   -9.2875    8.3445 H   0  0  0  0  0  0  0  0  0  0  0  0  # atno 2461 bound_to 2456
   -4.1153   -4.8080    7.7877 H   0  0  0  0  0  0  0  0  0  0  0  0  # atno 2472 bound_to 2467
    2.6208   -9.2561    5.2503 H   0  0  0  0  0  0  0  0  0  0  0  0  # atno 2515 bound_to 2510
   -2.4699  -18.0201   14.0247 H   0  0  0  0  0  0  0  0  0  0  0  0  # atno 3721 bound_to 3712
   -5.3376  -21.9527   11.0627 H   0  0  0  0  0  0  0  0  0  0  0  0  # atno 3767 bound_to 3762
    1.6626  -20.3744    9.5039 H   0  0  0  0  0  0  0  0  0  0  0  0  # atno 3841 bound_to 3832
    4.7401   -9.7759    4.9501 LP  0  0  0  0  0  0  0  0  0  0  0  0  # atno 4297 bound_to 1298
    3.3846   -9.8686    4.0441 LP  0  0  0  0  0  0  0  0  0  0  0  0  # atno 4298 bound_to 1298
    2.1063   -8.2249    7.6389 LP  0  0  0  0  0  0  0  0  0  0  0  0  # atno 4299 bound_to 2456
    0.5452   -8.2959    7.1649 LP  0  0  0  0  0  0  0  0  0  0  0  0  # atno 4300 bound_to 2456
    2.0288   -7.9138    5.9670 LP  0  0  0  0  0  0  0  0  0  0  0  0  # atno 4301 bound_to 2510
    2.6471   -7.8288    4.4580 LP  0  0  0  0  0  0  0  0  0  0  0  0  # atno 4302 bound_to 2510
   -3.3454  -16.8232   14.6404 LP  0  0  0  0  0  0  0  0  0  0  0  0  # atno 4306 bound_to 3712
   -3.3307  -17.0986   13.0309 LP  0  0  0  0  0  0  0  0  0  0  0  0  # atno 4307 bound_to 3712
    2.2903  -19.6930    8.1933 LP  0  0  0  0  0  0  0  0  0  0  0  0  # atno 4314 bound_to 3832
    3.0185  -20.9768    8.8919 LP  0  0  0  0  0  0  0  0  0  0  0  0  # atno 4315 bound_to 3832
   -3.9635  -22.7606   11.4178 LP  0  0  0  0  0  0  0  0  0  0  0  0  # atno 4318 bound_to 3762
   -4.8265  -23.1614   10.0907 LP  0  0  0  0  0  0  0  0  0  0  0  0  # atno 4319 bound_to 3762
   -4.0915   -5.3586    9.3248 LP  0  0  0  0  0  0  0  0  0  0  0  0  # atno 4320 bound_to 2467
   -5.5100   -5.2269    8.5265 LP  0  0  0  0  0  0  0  0  0  0  0  0  # atno 4321 bound_to 2467

> <Gold.Score>
     Score     S(PLP)   S(hbond)     S(cho)   S(metal)  DE(clash)   DE(tors)     intcor
     41.61     -41.97       0.00       0.00       0.00       0.00       0.48       0.59

> <Gold.PLP.Fitness>
41.6095

> <Gold.PLP.PLP>
-41.9742

> <Gold.PLP.part.hbond>
-1.0000

> <Gold.PLP.part.metal>
0.0000

> <Gold.PLP.part.buried>
-0.7514

> <Gold.PLP.part.nonpolar>
-42.1128

> <Gold.PLP.part.repulsive>
0.0439

> <Gold.PLP.ligand.clash>
0.0000

> <Gold.PLP.ligand.torsion>
0.4757

> <Gold.PLP.Chemscore.Hbond>
0.0000

> <Gold.PLP.Chemscore.CHOScore>
0.0000

> <Gold.PLP.Chemscore.Metal>
0.0000

> <Gold.PLP.Chemscore.Internal.Correction>
0.5868

