#       Name:                EN300-110418_i004
#       Creating user name   fsindt
#       Creation time:       Tue Feb 28 15:25:00 2023


#       File generated by GOLD software.
#

@<TRIPOS>MOLECULE
EN300-110418_i004|amine_7|mol2|6400|dock3
    34    35     1
SMALL
USER_CHARGES


@<TRIPOS>ATOM
      1 C1           2.2198 -14.5226  10.6481 C.3            1 <1>                0.0000
      2 N2           1.5399 -15.6929  11.2193 N.4            1 <1>                1.0000
      3 C3           1.9836 -15.8939  12.6152 C.3            1 <1>                0.0000
      4 C4           0.7224 -16.3938  13.3630 C.3            1 <1>                0.0000
      5 C5          -0.3961 -15.5623  12.6814 C.3            1 <1>                0.0000
      6 C6           0.0825 -15.4699  11.2173 C.3            1 <1>                0.0000
      7 C7          -0.2263 -14.1033  10.6622 C.2            1 <1>                0.0000
      8 O8          -0.5799 -13.2126  11.4057 O.2            1 <1>                0.0000
      9 N9          -0.1097 -13.8709   9.3398 N.am           1 <1>                0.0000
     10 C10         -0.3060 -12.5208   8.7903 C.3            1 <1>                0.0000
     11 C11          0.8968 -12.1757   7.9058 C.3            1 <1>                0.0000
     12 N12          1.0829 -13.2332   6.9033 N.3            1 <1>                0.0000
     13 C13          1.3993 -14.5196   7.5383 C.3            1 <1>                0.0000
     14 C14          0.2230 -14.9596   8.4086 C.3            1 <1>                0.0000
     15 H15          3.2839 -14.7352  10.5446 H              1 <1>                0.0000
     16 H16          1.7971 -14.2989   9.6686 H              1 <1>                0.0000
     17 H17          2.0830 -13.6654  11.3072 H              1 <1>                0.0000
     18 H18          2.7728 -16.6446  12.6582 H              1 <1>                0.0000
     19 H19          2.3300 -14.9529  13.0425 H              1 <1>                0.0000
     20 H20          0.5696 -17.4608  13.2008 H              1 <1>                0.0000
     21 H21          0.7840 -16.1670  14.4273 H              1 <1>                0.0000
     22 H22         -1.3530 -16.0808  12.7421 H              1 <1>                0.0000
     23 H23         -0.4651 -14.5703  13.1277 H              1 <1>                0.0000
     24 H24         -0.4090 -16.2359  10.6175 H              1 <1>                0.0000
     25 H25         -1.2179 -12.4972   8.1939 H              1 <1>                0.0000
     26 H26         -0.3795 -11.8009   9.6055 H              1 <1>                0.0000
     27 H27          0.7178 -11.2253   7.4030 H              1 <1>                0.0000
     28 H28          1.7919 -12.0981   8.5230 H              1 <1>                0.0000
     29 H29          1.5846 -15.2691   6.7689 H              1 <1>                0.0000
     30 H30          2.2873 -14.4093   8.1606 H              1 <1>                0.0000
     31 H31          0.4969 -15.8529   8.9699 H              1 <1>                0.0000
     32 H32         -0.6404 -15.1705   7.7776 H              1 <1>                0.0000
     33 H33          0.2723 -13.3136   6.3079 H              1 <1>                0.0000
     34 H34          1.7568 -16.5127  10.6726 H              1 <1>                0.0000
@<TRIPOS>BOND
    1    1    2 1     
    2    1   15 1     
    3    1   16 1     
    4    1   17 1     
    5    2    3 1     
    6    2    6 1     
    7    2   34 1     
    8    3    4 1     
    9    3   18 1     
   10    3   19 1     
   11    4    5 1     
   12    4   20 1     
   13    4   21 1     
   14    5    6 1     
   15    5   22 1     
   16    5   23 1     
   17    6    7 1     
   18    6   24 1     
   19    7    8 2     
   20    7    9 am    
   21    9   10 1     
   22    9   14 1     
   23   10   11 1     
   24   10   25 1     
   25   10   26 1     
   26   11   12 1     
   27   11   27 1     
   28   11   28 1     
   29   12   13 1     
   30   12   33 1     
   31   13   14 1     
   32   13   29 1     
   33   13   30 1     
   34   14   31 1     
   35   14   32 1     
@<TRIPOS>SUBSTRUCTURE
      1 ****           1
@<TRIPOS>SET
DONOR_HYDROGENS      STATIC     ATOMS    <user>   **** ""
2 34 33
ATOM$RED        STATIC     ATOMS    COLORGROUP SYSTEM
2 34 33
@<TRIPOS>COMMENT
> <Gold.Version>
2022.2.0

> <Gold.Id.Protein>
3pbl|protein|mol2

> <Gold.Protein.RotatedTorsions>
[ 1303 1298 1297 1294 ] final   51.21 input  179.99 | X-H torsion
[ 2461 2456 2455 2452 ] final -104.86 input   30.03 | X-H torsion
[ 2515 2510 2509 2506 ] final  172.78 input  -89.99 | X-H torsion
[ 3721 3712 3711 3710 ] final   97.93 input -179.91 | X-H torsion
[ 3841 3832 3831 3830 ] final   98.34 input -179.91 | X-H torsion
[ 3767 3762 3761 3758 ] final -160.78 input  -89.99 | X-H torsion
[ 2472 2467 2466 2463 ] final -119.39 input  -89.97 | X-H torsion

> <Gold.Protein.ActiveResidues>
 VAL82   VAL86   LEU89   PHE106  VAL107  ASP110  VAL111  MET112  CYS114  THR115 
 CYS181  SER182  ILE183  PHE188  VAL189  ILE190  SER192  SER193  SER196  TRP342 
 PHE345  PHE346  HIS349  VAL350  TYR365  THR369  GLY372  TYR373 

> <Gold.Protein.RotatedAtoms>
    3.8897  -10.2683    4.5509 H   0  0  0  0  0  0  0  0  0  0  0  0  # atno 1303 bound_to 1298
    0.4360   -9.0552    7.8854 H   0  0  0  0  0  0  0  0  0  0  0  0  # atno 2461 bound_to 2456
   -4.4914   -5.4422    9.4327 H   0  0  0  0  0  0  0  0  0  0  0  0  # atno 2472 bound_to 2467
    2.2758   -8.9561    5.9147 H   0  0  0  0  0  0  0  0  0  0  0  0  # atno 2515 bound_to 2510
   -2.8426  -17.5188   13.0636 H   0  0  0  0  0  0  0  0  0  0  0  0  # atno 3721 bound_to 3712
   -4.2987  -22.3058   11.6437 H   0  0  0  0  0  0  0  0  0  0  0  0  # atno 3767 bound_to 3762
    2.9257  -20.8831    9.1772 H   0  0  0  0  0  0  0  0  0  0  0  0  # atno 3841 bound_to 3832
    3.5809   -8.8578    3.7883 LP  0  0  0  0  0  0  0  0  0  0  0  0  # atno 4297 bound_to 1298
    4.8917   -8.9949    4.7524 LP  0  0  0  0  0  0  0  0  0  0  0  0  # atno 4298 bound_to 1298
    2.0204   -8.8230    8.2064 LP  0  0  0  0  0  0  0  0  0  0  0  0  # atno 4299 bound_to 2456
    1.2811   -7.9301    7.0564 LP  0  0  0  0  0  0  0  0  0  0  0  0  # atno 4300 bound_to 2456
    2.1883   -7.4298    5.3415 LP  0  0  0  0  0  0  0  0  0  0  0  0  # atno 4301 bound_to 2510
    2.8327   -8.6130    4.4187 LP  0  0  0  0  0  0  0  0  0  0  0  0  # atno 4302 bound_to 2510
   -2.7175  -17.9233   14.6124 LP  0  0  0  0  0  0  0  0  0  0  0  0  # atno 4306 bound_to 3712
   -3.5283  -16.5772   14.1685 LP  0  0  0  0  0  0  0  0  0  0  0  0  # atno 4307 bound_to 3712
    1.4228  -20.3342    9.3046 LP  0  0  0  0  0  0  0  0  0  0  0  0  # atno 4314 bound_to 3832
    2.4269  -19.7479    8.1580 LP  0  0  0  0  0  0  0  0  0  0  0  0  # atno 4315 bound_to 3832
   -4.3172  -23.3345   10.3755 LP  0  0  0  0  0  0  0  0  0  0  0  0  # atno 4318 bound_to 3762
   -5.5113  -22.2346   10.5521 LP  0  0  0  0  0  0  0  0  0  0  0  0  # atno 4319 bound_to 3762
   -5.4219   -5.0783    8.1411 LP  0  0  0  0  0  0  0  0  0  0  0  0  # atno 4320 bound_to 2467
   -3.8036   -4.8730    8.0655 LP  0  0  0  0  0  0  0  0  0  0  0  0  # atno 4321 bound_to 2467

> <Gold.Score>
     Score     S(PLP)   S(hbond)     S(cho)   S(metal)  DE(clash)   DE(tors)     intcor
     44.87     -38.87       2.00       0.00       0.00       0.00       0.29       0.59

> <Gold.PLP.Fitness>
44.8732

> <Gold.PLP.PLP>
-38.8732

> <Gold.PLP.part.hbond>
-1.0000

> <Gold.PLP.part.metal>
0.0000

> <Gold.PLP.part.buried>
-4.2593

> <Gold.PLP.part.nonpolar>
-34.4772

> <Gold.PLP.part.repulsive>
0.0396

> <Gold.PLP.ligand.clash>
0.0000

> <Gold.PLP.ligand.torsion>
0.2934

> <Gold.PLP.Chemscore.Hbond>
2.0000

> <Gold.PLP.Chemscore.CHOScore>
0.0000

> <Gold.PLP.Chemscore.Metal>
0.0000

> <Gold.Chemscore.Hbonds>
donor molecule, donor type, donor heavy atom, donor atom, acceptor molecule, acceptor atom, score
      L1  H     2    34       P1  1227  2.00

> <Gold.PLP.Chemscore.Internal.Correction>
0.5868

