#       Name:                EN300-110418_i004
#       Creating user name   fsindt
#       Creation time:       Tue Feb 28 15:25:00 2023


#       File generated by GOLD software.
#

@<TRIPOS>MOLECULE
EN300-110418_i004|amine_7|mol2|6400|dock4
    34    35     1
SMALL
USER_CHARGES


@<TRIPOS>ATOM
      1 C1          -0.4437 -17.9157  11.5316 C.3            1 <1>                0.0000
      2 N2           0.9075 -17.6032  12.0157 N.4            1 <1>                1.0000
      3 C3           1.0076 -16.1586  12.3137 C.3            1 <1>                0.0000
      4 C4           1.9256 -16.0741  13.5586 C.3            1 <1>                0.0000
      5 C5           1.4827 -17.3265  14.3601 C.3            1 <1>                0.0000
      6 C6           1.1780 -18.3577  13.2533 C.3            1 <1>                0.0000
      7 C7          -0.0317 -19.1732  13.6312 C.2            1 <1>                0.0000
      8 O8          -0.9939 -18.6331  14.1346 O.2            1 <1>                0.0000
      9 N9          -0.0442 -20.5026  13.4099 N.am           1 <1>                0.0000
     10 C10          1.1483 -21.1938  12.8965 C.3            1 <1>                0.0000
     11 C11          1.4436 -22.3933  13.8033 C.3            1 <1>                0.0000
     12 N12          0.2403 -23.2287  13.9124 N.3            1 <1>                0.0000
     13 C13         -0.8610 -22.4959  14.5512 C.3            1 <1>                0.0000
     14 C14         -1.2489 -21.3016  13.6809 C.3            1 <1>                0.0000
     15 H15         -0.5985 -17.4481  10.5591 H              1 <1>                0.0000
     16 H16         -0.5551 -18.9958  11.4371 H              1 <1>                0.0000
     17 H17         -1.1803 -17.5350  12.2391 H              1 <1>                0.0000
     18 H18          1.4570 -15.6282  11.4741 H              1 <1>                0.0000
     19 H19          0.0232 -15.7486  12.5396 H              1 <1>                0.0000
     20 H20          2.9757 -16.1435  13.2748 H              1 <1>                0.0000
     21 H21          1.7347 -15.1616  14.1233 H              1 <1>                0.0000
     22 H22          2.2898 -17.6780  15.0027 H              1 <1>                0.0000
     23 H23          0.5879 -17.1131  14.9449 H              1 <1>                0.0000
     24 H24          2.0381 -19.0114  13.1085 H              1 <1>                0.0000
     25 H25          0.9615 -21.5403  11.8802 H              1 <1>                0.0000
     26 H26          1.9983 -20.5115  12.9034 H              1 <1>                0.0000
     27 H27          2.2567 -22.9805  13.3763 H              1 <1>                0.0000
     28 H28          1.7313 -22.0389  14.7931 H              1 <1>                0.0000
     29 H29         -1.7194 -23.1577  14.6667 H              1 <1>                0.0000
     30 H30         -0.5412 -22.1402  15.5306 H              1 <1>                0.0000
     31 H31         -1.9851 -20.6912  14.2040 H              1 <1>                0.0000
     32 H32         -1.6660 -21.6557  12.7382 H              1 <1>                0.0000
     33 H33         -0.0370 -23.5830  13.0091 H              1 <1>                0.0000
     34 H34          1.5870 -17.8528  11.3128 H              1 <1>                0.0000
@<TRIPOS>BOND
    1    1    2 1     
    2    1   15 1     
    3    1   16 1     
    4    1   17 1     
    5    2    3 1     
    6    2    6 1     
    7    2   34 1     
    8    3    4 1     
    9    3   18 1     
   10    3   19 1     
   11    4    5 1     
   12    4   20 1     
   13    4   21 1     
   14    5    6 1     
   15    5   22 1     
   16    5   23 1     
   17    6    7 1     
   18    6   24 1     
   19    7    8 2     
   20    7    9 am    
   21    9   10 1     
   22    9   14 1     
   23   10   11 1     
   24   10   25 1     
   25   10   26 1     
   26   11   12 1     
   27   11   27 1     
   28   11   28 1     
   29   12   13 1     
   30   12   33 1     
   31   13   14 1     
   32   13   29 1     
   33   13   30 1     
   34   14   31 1     
   35   14   32 1     
@<TRIPOS>SUBSTRUCTURE
      1 ****           1
@<TRIPOS>SET
DONOR_HYDROGENS      STATIC     ATOMS    <user>   **** ""
2 34 33
ATOM$RED        STATIC     ATOMS    COLORGROUP SYSTEM
2 34 33
@<TRIPOS>COMMENT
> <Gold.Version>
2022.2.0

> <Gold.Id.Protein>
3pbl|protein|mol2

> <Gold.Protein.RotatedTorsions>
[ 1303 1298 1297 1294 ] final   27.85 input  179.99 | X-H torsion
[ 2461 2456 2455 2452 ] final   48.33 input   30.03 | X-H torsion
[ 2515 2510 2509 2506 ] final  179.06 input  -89.99 | X-H torsion
[ 3721 3712 3711 3710 ] final   -4.38 input -179.91 | X-H torsion
[ 3841 3832 3831 3830 ] final   98.01 input -179.91 | X-H torsion
[ 3767 3762 3761 3758 ] final  -51.87 input  -89.99 | X-H torsion
[ 2472 2467 2466 2463 ] final  -59.04 input  -89.97 | X-H torsion

> <Gold.Protein.ActiveResidues>
 VAL82   VAL86   LEU89   PHE106  VAL107  ASP110  VAL111  MET112  CYS114  THR115 
 CYS181  SER182  ILE183  PHE188  VAL189  ILE190  SER192  SER193  SER196  TRP342 
 PHE345  PHE346  HIS349  VAL350  TYR365  THR369  GLY372  TYR373 

> <Gold.Protein.RotatedAtoms>
    3.6086  -10.1636    4.3149 H   0  0  0  0  0  0  0  0  0  0  0  0  # atno 1303 bound_to 1298
    1.7762   -7.9662    7.2654 H   0  0  0  0  0  0  0  0  0  0  0  0  # atno 2461 bound_to 2456
   -3.7203   -5.1823    8.9469 H   0  0  0  0  0  0  0  0  0  0  0  0  # atno 2472 bound_to 2467
    2.3174   -9.0271    5.8523 H   0  0  0  0  0  0  0  0  0  0  0  0  # atno 2515 bound_to 2510
   -2.4974  -17.9292   14.3018 H   0  0  0  0  0  0  0  0  0  0  0  0  # atno 3721 bound_to 3712
   -5.4941  -22.1272   10.6982 H   0  0  0  0  0  0  0  0  0  0  0  0  # atno 3767 bound_to 3762
    2.9226  -20.8848    9.1807 H   0  0  0  0  0  0  0  0  0  0  0  0  # atno 3841 bound_to 3832
    3.8544   -8.6086    3.8817 LP  0  0  0  0  0  0  0  0  0  0  0  0  # atno 4297 bound_to 1298
    4.8993   -9.3488    4.8950 LP  0  0  0  0  0  0  0  0  0  0  0  0  # atno 4298 bound_to 1298
    0.3347   -8.6991    7.4942 LP  0  0  0  0  0  0  0  0  0  0  0  0  # atno 4299 bound_to 2456
    1.6271   -9.1426    8.3884 LP  0  0  0  0  0  0  0  0  0  0  0  0  # atno 4300 bound_to 2456
    2.1546   -7.4569    5.4353 LP  0  0  0  0  0  0  0  0  0  0  0  0  # atno 4301 bound_to 2510
    2.8248   -8.5148    4.3874 LP  0  0  0  0  0  0  0  0  0  0  0  0  # atno 4302 bound_to 2510
   -3.4656  -16.6517   14.3936 LP  0  0  0  0  0  0  0  0  0  0  0  0  # atno 4306 bound_to 3712
   -3.1789  -17.3750   12.9578 LP  0  0  0  0  0  0  0  0  0  0  0  0  # atno 4307 bound_to 3712
    1.4215  -20.3299    9.3016 LP  0  0  0  0  0  0  0  0  0  0  0  0  # atno 4314 bound_to 3832
    2.4318  -19.7503    8.1570 LP  0  0  0  0  0  0  0  0  0  0  0  0  # atno 4315 bound_to 3832
   -4.1743  -22.4344   11.6096 LP  0  0  0  0  0  0  0  0  0  0  0  0  # atno 4318 bound_to 3762
   -4.4593  -23.3133   10.2632 LP  0  0  0  0  0  0  0  0  0  0  0  0  # atno 4319 bound_to 3762
   -5.3377   -5.3901    9.0320 LP  0  0  0  0  0  0  0  0  0  0  0  0  # atno 4320 bound_to 2467
   -4.6587   -4.8211    7.6603 LP  0  0  0  0  0  0  0  0  0  0  0  0  # atno 4321 bound_to 2467

> <Gold.Score>
     Score     S(PLP)   S(hbond)     S(cho)   S(metal)  DE(clash)   DE(tors)     intcor
     40.71     -32.06       3.00       0.00       0.00       0.00       0.47       0.59

> <Gold.PLP.Fitness>
40.7093

> <Gold.PLP.PLP>
-32.0588

> <Gold.PLP.part.hbond>
-1.9919

> <Gold.PLP.part.metal>
0.0000

> <Gold.PLP.part.buried>
-3.8211

> <Gold.PLP.part.nonpolar>
-26.4489

> <Gold.PLP.part.repulsive>
0.0000

> <Gold.PLP.ligand.clash>
0.0000

> <Gold.PLP.ligand.torsion>
0.4682

> <Gold.PLP.Chemscore.Hbond>
3.0000

> <Gold.PLP.Chemscore.CHOScore>
0.0000

> <Gold.PLP.Chemscore.Metal>
0.0000

> <Gold.Chemscore.Hbonds>
donor molecule, donor type, donor heavy atom, donor atom, acceptor molecule, acceptor atom, score
      L1  H     2    34       P1  1227  2.00
      P1  H  3712  3721       L1     8  1.00

> <Gold.PLP.Chemscore.Internal.Correction>
0.5868

