#       Name:                EN300-110418_i004
#       Creating user name   fsindt
#       Creation time:       Tue Feb 28 15:25:06 2023


#       File generated by GOLD software.
#

@<TRIPOS>MOLECULE
EN300-110418_i004|amine_7|mol2|6400|dock15
    34    35     1
SMALL
USER_CHARGES


@<TRIPOS>ATOM
      1 C1          -1.7489 -12.4070   8.3739 C.3            1 <1>                0.0000
      2 N2          -1.6333 -11.1684   9.1553 N.4            1 <1>                1.0000
      3 C3          -2.9557 -10.8018   9.7052 C.3            1 <1>                0.0000
      4 C4          -2.6512 -10.2007  11.1001 C.3            1 <1>                0.0000
      5 C5          -1.4798 -11.0981  11.5791 C.3            1 <1>                0.0000
      6 C6          -0.6990 -11.3749  10.2771 C.3            1 <1>                0.0000
      7 C7          -0.1979 -12.7961  10.2721 C.2            1 <1>                0.0000
      8 O8          -0.6031 -13.5849  11.0995 O.2            1 <1>                0.0000
      9 N9           0.7005 -13.1907   9.3482 N.am           1 <1>                0.0000
     10 C10          1.1253 -14.5960   9.2601 C.3            1 <1>                0.0000
     11 C11          0.9751 -15.0597   7.8073 C.3            1 <1>                0.0000
     12 N12          1.6990 -14.1355   6.9242 N.3            1 <1>                0.0000
     13 C13          1.1259 -12.7841   6.9824 C.3            1 <1>                0.0000
     14 C14          1.2777 -12.2283   8.3974 C.3            1 <1>                0.0000
     15 H15         -2.3476 -12.2197   7.4825 H              1 <1>                0.0000
     16 H16         -0.7553 -12.7451   8.0797 H              1 <1>                0.0000
     17 H17         -2.2294 -13.1752   8.9797 H              1 <1>                0.0000
     18 H18         -3.4387 -10.0597   9.0694 H              1 <1>                0.0000
     19 H19         -3.5848 -11.6866   9.8024 H              1 <1>                0.0000
     20 H20         -2.3372  -9.1603  11.0168 H              1 <1>                0.0000
     21 H21         -3.5118 -10.2955  11.7623 H              1 <1>                0.0000
     22 H22         -0.8557 -10.5663  12.2971 H              1 <1>                0.0000
     23 H23         -1.8563 -12.0270  12.0076 H              1 <1>                0.0000
     24 H24          0.1394 -10.6834  10.1935 H              1 <1>                0.0000
     25 H25          2.1677 -14.6833   9.5664 H              1 <1>                0.0000
     26 H26          0.4980 -15.2093   9.9069 H              1 <1>                0.0000
     27 H27          1.3881 -16.0628   7.7011 H              1 <1>                0.0000
     28 H28         -0.0806 -15.0701   7.5361 H              1 <1>                0.0000
     29 H29          1.6484 -12.1370   6.2779 H              1 <1>                0.0000
     30 H30          0.0682 -12.8262   6.7226 H              1 <1>                0.0000
     31 H31          0.7538 -11.2756   8.4747 H              1 <1>                0.0000
     32 H32          2.3346 -12.0876   8.6241 H              1 <1>                0.0000
     33 H33          2.6834 -14.1207   7.1454 H              1 <1>                0.0000
     34 H34         -1.2928 -10.4243   8.5650 H              1 <1>                0.0000
@<TRIPOS>BOND
    1    1    2 1     
    2    1   15 1     
    3    1   16 1     
    4    1   17 1     
    5    2    3 1     
    6    2    6 1     
    7    2   34 1     
    8    3    4 1     
    9    3   18 1     
   10    3   19 1     
   11    4    5 1     
   12    4   20 1     
   13    4   21 1     
   14    5    6 1     
   15    5   22 1     
   16    5   23 1     
   17    6    7 1     
   18    6   24 1     
   19    7    8 2     
   20    7    9 am    
   21    9   10 1     
   22    9   14 1     
   23   10   11 1     
   24   10   25 1     
   25   10   26 1     
   26   11   12 1     
   27   11   27 1     
   28   11   28 1     
   29   12   13 1     
   30   12   33 1     
   31   13   14 1     
   32   13   29 1     
   33   13   30 1     
   34   14   31 1     
   35   14   32 1     
@<TRIPOS>SUBSTRUCTURE
      1 ****           1
@<TRIPOS>SET
DONOR_HYDROGENS      STATIC     ATOMS    <user>   **** ""
2 34 33
ATOM$RED        STATIC     ATOMS    COLORGROUP SYSTEM
2 34 33
@<TRIPOS>COMMENT
> <Gold.Version>
2022.2.0

> <Gold.Id.Protein>
3pbl|protein|mol2

> <Gold.Protein.RotatedTorsions>
[ 1303 1298 1297 1294 ] final -121.54 input  179.99 | X-H torsion
[ 2461 2456 2455 2452 ] final -138.11 input   30.03 | X-H torsion
[ 2515 2510 2509 2506 ] final  105.56 input  -89.99 | X-H torsion
[ 3721 3712 3711 3710 ] final  139.82 input -179.91 | X-H torsion
[ 3841 3832 3831 3830 ] final    6.92 input -179.91 | X-H torsion
[ 3767 3762 3761 3758 ] final   14.13 input  -89.99 | X-H torsion
[ 2472 2467 2466 2463 ] final  -34.15 input  -89.97 | X-H torsion

> <Gold.Protein.ActiveResidues>
 VAL82   VAL86   LEU89   PHE106  VAL107  ASP110  VAL111  MET112  CYS114  THR115 
 CYS181  SER182  ILE183  PHE188  VAL189  ILE190  SER192  SER193  SER196  TRP342 
 PHE345  PHE346  HIS349  VAL350  TYR365  THR369  GLY372  TYR373 

> <Gold.Protein.RotatedAtoms>
    4.2540   -8.4762    4.1086 H   0  0  0  0  0  0  0  0  0  0  0  0  # atno 1303 bound_to 1298
    0.8027   -9.2639    8.2218 H   0  0  0  0  0  0  0  0  0  0  0  0  # atno 2461 bound_to 2456
   -3.6345   -5.0393    8.5763 H   0  0  0  0  0  0  0  0  0  0  0  0  # atno 2472 bound_to 2467
    2.0288   -7.9446    5.9831 H   0  0  0  0  0  0  0  0  0  0  0  0  # atno 2515 bound_to 2510
   -3.1455  -16.9816   13.1188 H   0  0  0  0  0  0  0  0  0  0  0  0  # atno 3721 bound_to 3712
   -5.1785  -22.8860   10.0820 H   0  0  0  0  0  0  0  0  0  0  0  0  # atno 3767 bound_to 3762
    1.8009  -20.5639    9.5879 H   0  0  0  0  0  0  0  0  0  0  0  0  # atno 3841 bound_to 3832
    4.7295   -9.7928    4.9493 LP  0  0  0  0  0  0  0  0  0  0  0  0  # atno 4297 bound_to 1298
    3.3786   -9.8526    4.0338 LP  0  0  0  0  0  0  0  0  0  0  0  0  # atno 4298 bound_to 1298
    2.1611   -8.4308    7.8638 LP  0  0  0  0  0  0  0  0  0  0  0  0  # atno 4299 bound_to 2456
    0.7739   -8.1137    7.0627 LP  0  0  0  0  0  0  0  0  0  0  0  0  # atno 4300 bound_to 2456
    2.6344   -7.8006    4.4737 LP  0  0  0  0  0  0  0  0  0  0  0  0  # atno 4301 bound_to 2510
    2.6337   -9.2541    5.2181 LP  0  0  0  0  0  0  0  0  0  0  0  0  # atno 4302 bound_to 2510
   -2.6074  -18.2105   14.0009 LP  0  0  0  0  0  0  0  0  0  0  0  0  # atno 4306 bound_to 3712
   -3.2887  -16.9103   14.7163 LP  0  0  0  0  0  0  0  0  0  0  0  0  # atno 4307 bound_to 3712
    2.0415  -19.6386    8.2987 LP  0  0  0  0  0  0  0  0  0  0  0  0  # atno 4314 bound_to 3832
    3.1075  -20.8123    8.6895 LP  0  0  0  0  0  0  0  0  0  0  0  0  # atno 4315 bound_to 3832
   -5.0377  -21.9223   11.3928 LP  0  0  0  0  0  0  0  0  0  0  0  0  # atno 4318 bound_to 3762
   -3.9113  -23.0668   11.0960 LP  0  0  0  0  0  0  0  0  0  0  0  0  # atno 4319 bound_to 3762
   -5.0385   -5.4537    9.2996 LP  0  0  0  0  0  0  0  0  0  0  0  0  # atno 4320 bound_to 2467
   -5.0437   -4.9005    7.7632 LP  0  0  0  0  0  0  0  0  0  0  0  0  # atno 4321 bound_to 2467

> <Gold.Score>
     Score     S(PLP)   S(hbond)     S(cho)   S(metal)  DE(clash)   DE(tors)     intcor
     39.59     -39.06       0.18       0.00       0.00       0.00       0.29       0.59

> <Gold.PLP.Fitness>
39.5913

> <Gold.PLP.PLP>
-39.0609

> <Gold.PLP.part.hbond>
-0.7930

> <Gold.PLP.part.metal>
0.0000

> <Gold.PLP.part.buried>
-3.9529

> <Gold.PLP.part.nonpolar>
-36.1626

> <Gold.PLP.part.repulsive>
0.0501

> <Gold.PLP.ligand.clash>
0.0000

> <Gold.PLP.ligand.torsion>
0.2934

> <Gold.PLP.Chemscore.Hbond>
0.1768

> <Gold.PLP.Chemscore.CHOScore>
0.0000

> <Gold.PLP.Chemscore.Metal>
0.0000

> <Gold.Chemscore.Hbonds>
donor molecule, donor type, donor heavy atom, donor atom, acceptor molecule, acceptor atom, score
      L1  H    12    33       P1  1223  0.18

> <Gold.PLP.Chemscore.Internal.Correction>
0.5868

