#       Name:                EN300-110418_i004
#       Creating user name   fsindt
#       Creation time:       Tue Feb 28 15:25:03 2023


#       File generated by GOLD software.
#

@<TRIPOS>MOLECULE
EN300-110418_i004|amine_7|mol2|6400|dock10
    34    35     1
SMALL
USER_CHARGES


@<TRIPOS>ATOM
      1 C1          -0.1616 -11.7914   7.1671 C.3            1 <1>                0.0000
      2 N2          -0.0470 -13.1517   7.7097 N.4            1 <1>                1.0000
      3 C3           1.2064 -13.7738   7.2324 C.3            1 <1>                0.0000
      4 C4           1.7011 -14.6313   8.4238 C.3            1 <1>                0.0000
      5 C5           1.3162 -13.7390   9.6332 C.3            1 <1>                0.0000
      6 C6          -0.0129 -13.0971   9.1827 C.3            1 <1>                0.0000
      7 C7          -0.0725 -11.6638   9.6441 C.2            1 <1>                0.0000
      8 O8           0.9103 -10.9580   9.5590 O.2            1 <1>                0.0000
      9 N9          -1.2176 -11.1661  10.1515 N.am           1 <1>                0.0000
     10 C10         -1.3286  -9.7446  10.5121 C.3            1 <1>                0.0000
     11 C11         -2.5867  -9.1716   9.8508 C.3            1 <1>                0.0000
     12 N12         -3.7463  -9.9969  10.2141 N.3            1 <1>                0.0000
     13 C13         -3.6056 -11.3674   9.7042 C.3            1 <1>                0.0000
     14 C14         -2.3913 -12.0291  10.3538 C.3            1 <1>                0.0000
     15 H15         -0.3022 -11.8414   6.0874 H              1 <1>                0.0000
     16 H16         -1.0158 -11.2896   7.6218 H              1 <1>                0.0000
     17 H17          0.7480 -11.2336   7.3896 H              1 <1>                0.0000
     18 H18          1.0106 -14.4053   6.3658 H              1 <1>                0.0000
     19 H19          1.9408 -13.0069   6.9860 H              1 <1>                0.0000
     20 H20          1.1776 -15.5866   8.4612 H              1 <1>                0.0000
     21 H21          2.7798 -14.7803   8.3763 H              1 <1>                0.0000
     22 H22          1.1681 -14.3446  10.5272 H              1 <1>                0.0000
     23 H23          2.0743 -12.9749   9.8052 H              1 <1>                0.0000
     24 H24         -0.8530 -13.6567   9.5940 H              1 <1>                0.0000
     25 H25         -1.4071  -9.6465  11.5947 H              1 <1>                0.0000
     26 H26         -0.4502  -9.2067  10.1555 H              1 <1>                0.0000
     27 H27         -2.7452  -8.1496  10.1952 H              1 <1>                0.0000
     28 H28         -2.4623  -9.1756   8.7679 H              1 <1>                0.0000
     29 H29         -4.5033 -11.9379   9.9424 H              1 <1>                0.0000
     30 H30         -3.4672 -11.3408   8.6234 H              1 <1>                0.0000
     31 H31         -2.2157 -13.0023   9.8953 H              1 <1>                0.0000
     32 H32         -2.5688 -12.1512  11.4223 H              1 <1>                0.0000
     33 H33         -3.8922  -9.9957  11.2126 H              1 <1>                0.0000
     34 H34         -0.8360 -13.7049   7.4105 H              1 <1>                0.0000
@<TRIPOS>BOND
    1    1    2 1     
    2    1   15 1     
    3    1   16 1     
    4    1   17 1     
    5    2    3 1     
    6    2    6 1     
    7    2   34 1     
    8    3    4 1     
    9    3   18 1     
   10    3   19 1     
   11    4    5 1     
   12    4   20 1     
   13    4   21 1     
   14    5    6 1     
   15    5   22 1     
   16    5   23 1     
   17    6    7 1     
   18    6   24 1     
   19    7    8 2     
   20    7    9 am    
   21    9   10 1     
   22    9   14 1     
   23   10   11 1     
   24   10   25 1     
   25   10   26 1     
   26   11   12 1     
   27   11   27 1     
   28   11   28 1     
   29   12   13 1     
   30   12   33 1     
   31   13   14 1     
   32   13   29 1     
   33   13   30 1     
   34   14   31 1     
   35   14   32 1     
@<TRIPOS>SUBSTRUCTURE
      1 ****           1
@<TRIPOS>SET
DONOR_HYDROGENS      STATIC     ATOMS    <user>   **** ""
2 34 33
ATOM$RED        STATIC     ATOMS    COLORGROUP SYSTEM
2 34 33
@<TRIPOS>COMMENT
> <Gold.Version>
2022.2.0

> <Gold.Id.Protein>
3pbl|protein|mol2

> <Gold.Protein.RotatedTorsions>
[ 1303 1298 1297 1294 ] final   44.27 input  179.99 | X-H torsion
[ 2461 2456 2455 2452 ] final -146.18 input   30.03 | X-H torsion
[ 2515 2510 2509 2506 ] final  -37.54 input  -89.99 | X-H torsion
[ 3721 3712 3711 3710 ] final  172.36 input -179.91 | X-H torsion
[ 3841 3832 3831 3830 ] final  108.43 input -179.91 | X-H torsion
[ 3767 3762 3761 3758 ] final  -61.49 input  -89.99 | X-H torsion
[ 2472 2467 2466 2463 ] final  104.85 input  -89.97 | X-H torsion

> <Gold.Protein.ActiveResidues>
 VAL82   VAL86   LEU89   PHE106  VAL107  ASP110  VAL111  MET112  CYS114  THR115 
 CYS181  SER182  ILE183  PHE188  VAL189  ILE190  SER192  SER193  SER196  TRP342 
 PHE345  PHE346  HIS349  VAL350  TYR365  THR369  GLY372  TYR373 

> <Gold.Protein.RotatedAtoms>
    3.8000  -10.2522    4.4823 H   0  0  0  0  0  0  0  0  0  0  0  0  # atno 1303 bound_to 1298
    0.9195   -9.2830    8.2817 H   0  0  0  0  0  0  0  0  0  0  0  0  # atno 2461 bound_to 2456
   -5.2819   -4.9918    7.9415 H   0  0  0  0  0  0  0  0  0  0  0  0  # atno 2472 bound_to 2467
    2.7552   -8.1399    4.3610 H   0  0  0  0  0  0  0  0  0  0  0  0  # atno 2515 bound_to 2510
   -3.3021  -16.6578   13.4447 H   0  0  0  0  0  0  0  0  0  0  0  0  # atno 3721 bound_to 3712
   -5.4555  -22.0493   10.8304 H   0  0  0  0  0  0  0  0  0  0  0  0  # atno 3767 bound_to 3762
    3.0100  -20.8191    9.0677 H   0  0  0  0  0  0  0  0  0  0  0  0  # atno 3841 bound_to 3832
    3.6546   -8.7728    3.8066 LP  0  0  0  0  0  0  0  0  0  0  0  0  # atno 4297 bound_to 1298
    4.9076   -9.0960    4.8027 LP  0  0  0  0  0  0  0  0  0  0  0  0  # atno 4298 bound_to 1298
    2.1497   -8.3394    7.7684 LP  0  0  0  0  0  0  0  0  0  0  0  0  # atno 4299 bound_to 2456
    0.6685   -8.1860    7.0982 LP  0  0  0  0  0  0  0  0  0  0  0  0  # atno 4300 bound_to 2456
    2.4803   -9.2128    5.5607 LP  0  0  0  0  0  0  0  0  0  0  0  0  # atno 4301 bound_to 2510
    2.0610   -7.6465    5.7540 LP  0  0  0  0  0  0  0  0  0  0  0  0  # atno 4302 bound_to 2510
   -2.6928  -18.1429   13.4755 LP  0  0  0  0  0  0  0  0  0  0  0  0  # atno 4306 bound_to 3712
   -3.0226  -17.3516   14.8654 LP  0  0  0  0  0  0  0  0  0  0  0  0  # atno 4307 bound_to 3712
    1.4775  -20.4682    9.3907 LP  0  0  0  0  0  0  0  0  0  0  0  0  # atno 4314 bound_to 3832
    2.2748  -19.6878    8.1983 LP  0  0  0  0  0  0  0  0  0  0  0  0  # atno 4315 bound_to 3832
   -4.0819  -22.5515   11.5570 LP  0  0  0  0  0  0  0  0  0  0  0  0  # atno 4318 bound_to 3762
   -4.5902  -23.2740   10.1836 LP  0  0  0  0  0  0  0  0  0  0  0  0  # atno 4319 bound_to 3762
   -3.6866   -4.9397    8.2861 LP  0  0  0  0  0  0  0  0  0  0  0  0  # atno 4320 bound_to 2467
   -4.7485   -5.4620    9.4114 LP  0  0  0  0  0  0  0  0  0  0  0  0  # atno 4321 bound_to 2467

> <Gold.Score>
     Score     S(PLP)   S(hbond)     S(cho)   S(metal)  DE(clash)   DE(tors)     intcor
     43.15     -40.50       0.99       0.00       0.00       0.00       0.46       0.59

> <Gold.PLP.Fitness>
43.1506

> <Gold.PLP.PLP>
-40.5035

> <Gold.PLP.part.hbond>
-1.0000

> <Gold.PLP.part.metal>
0.0000

> <Gold.PLP.part.buried>
-1.7502

> <Gold.PLP.part.nonpolar>
-38.7118

> <Gold.PLP.part.repulsive>
0.0000

> <Gold.PLP.ligand.clash>
0.0000

> <Gold.PLP.ligand.torsion>
0.4567

> <Gold.PLP.Chemscore.Hbond>
0.9913

> <Gold.PLP.Chemscore.CHOScore>
0.0000

> <Gold.PLP.Chemscore.Metal>
0.0000

> <Gold.Chemscore.Hbonds>
donor molecule, donor type, donor heavy atom, donor atom, acceptor molecule, acceptor atom, score
      P1  H  2456  2461       L1     8  0.99

> <Gold.PLP.Chemscore.Internal.Correction>
0.5868

