#       Name:                EN300-213297_i002
#       Creating user name   aseyller
#       Creation time:       Fri Apr 21 13:56:15 2023


#       File generated by GOLD software.
#

@<TRIPOS>MOLECULE
EN300-213297_i002|amine_1|mol2|527|dock5
    22    21     1
SMALL
USER_CHARGES


@<TRIPOS>ATOM
      1 C1          27.5254  35.0481  38.5145 C.3            1 <1>                0.0000
      2 C2          27.5812  36.1401  39.5848 C.3            1 <1>                0.0000
      3 C3          26.6660  37.2976  39.1804 C.3            1 <1>                0.0000
      4 C4          27.1156  35.5658  40.9242 C.3            1 <1>                0.0000
      5 C5          29.0177  36.6490  39.7197 C.3            1 <1>                0.0000
      6 N6          29.9209  35.5125  39.9444 N.4            1 <1>                1.0000
      7 C7          29.4081  37.3496  38.4853 C.1            1 <1>                0.0000
      8 C8          29.7192  37.9083  37.5009 C.1            1 <1>                0.0000
      9 H9          27.8571  35.4572  37.5603 H              1 <1>                0.0000
     10 H10         28.1774  34.2234  38.8027 H              1 <1>                0.0000
     11 H11         26.5021  34.6856  38.4184 H              1 <1>                0.0000
     12 H12         25.6426  36.9351  39.0842 H              1 <1>                0.0000
     13 H13         26.7057  38.0756  39.9428 H              1 <1>                0.0000
     14 H14         26.9977  37.7067  38.2261 H              1 <1>                0.0000
     15 H15         27.7675  34.7411  41.2123 H              1 <1>                0.0000
     16 H16         27.1552  36.3438  41.6867 H              1 <1>                0.0000
     17 H17         26.0921  35.2033  40.8281 H              1 <1>                0.0000
     18 H18         29.0819  37.3364  40.5633 H              1 <1>                0.0000
     19 H19         29.9976  38.4081  36.6203 H              1 <1>                0.0000
     20 H20         30.3865  35.6234  40.8326 H              1 <1>                0.0000
     21 H21         29.3884  34.6555  39.9485 H              1 <1>                0.0000
     22 H22         30.6081  35.4781  39.2064 H              1 <1>                0.0000
@<TRIPOS>BOND
    1    1    2 1     
    2    1    9 1     
    3    1   10 1     
    4    1   11 1     
    5    2    3 1     
    6    2    4 1     
    7    2    5 1     
    8    3   12 1     
    9    3   13 1     
   10    3   14 1     
   11    4   15 1     
   12    4   16 1     
   13    4   17 1     
   14    5    6 1     
   15    5    7 1     
   16    5   18 1     
   17    6   20 1     
   18    6   21 1     
   19    6   22 1     
   20    7    8 3     
   21    8   19 1     
@<TRIPOS>SUBSTRUCTURE
      1 ****           1
@<TRIPOS>SET
DONOR_HYDROGENS      STATIC     ATOMS    <user>   **** ""
3 20 21 22
ATOM$RED        STATIC     ATOMS    COLORGROUP SYSTEM
3 20 21 22
@<TRIPOS>COMMENT
> <Gold.Version>
2022.2.0

> <Gold.Id.Protein>
1qkm|1qkm_protein|mol2

> <Gold.Protein.RotatedTorsions>
[  496  491  490  487 ] final  -67.19 input  -89.99 | X-H torsion

> <Gold.Protein.ActiveResidues>
 MET295  LEU298  THR299  LEU301  ALA302  GLU305  TRP335  MET336  LEU339  MET340 
 GLY342  LEU343  ARG346  PHE356  ILE373  ILE376  PHE377  LEU380  LYS471  GLY472 
 MET473  HIS475  LEU476  LEU477  ASN478  MET479  VAL484  VAL487 

> <Gold.Protein.RotatedAtoms>
   36.5547   34.7353   41.3814 H   0  0  0  0  0  0  0  0  0  0  0  0  # atno 496  bound_to 491 

> <Gold.Score>
     Score     S(PLP)   S(hbond)     S(cho)   S(metal)  DE(clash)   DE(tors)     intcor
     29.04     -26.19       1.00       0.00       0.00       0.00       0.07       0.00

> <Gold.PLP.Fitness>
29.0442

> <Gold.PLP.PLP>
-26.1895

> <Gold.PLP.part.hbond>
-1.0000

> <Gold.PLP.part.metal>
0.0000

> <Gold.PLP.part.buried>
-1.1917

> <Gold.PLP.part.nonpolar>
-24.3716

> <Gold.PLP.part.repulsive>
0.0623

> <Gold.PLP.ligand.clash>
0.0000

> <Gold.PLP.ligand.torsion>
0.0726

> <Gold.PLP.Chemscore.Hbond>
1.0000

> <Gold.PLP.Chemscore.CHOScore>
0.0000

> <Gold.PLP.Chemscore.Metal>
0.0000

> <Gold.Chemscore.Hbonds>
donor molecule, donor type, donor heavy atom, donor atom, acceptor molecule, acceptor atom, score
      L1  H     6    20       P1   470  1.00

> <Gold.PLP.Chemscore.Internal.Correction>
0.0000

