#       Name:                EN300-213297_i002
#       Creating user name   aseyller
#       Creation time:       Fri Apr 21 13:56:19 2023


#       File generated by GOLD software.
#

@<TRIPOS>MOLECULE
EN300-213297_i002|amine_1|mol2|527|dock12
    22    21     1
SMALL
USER_CHARGES


@<TRIPOS>ATOM
      1 C1          28.2390  37.0292  37.6287 C.3            1 <1>                0.0000
      2 C2          28.1373  36.3936  39.0167 C.3            1 <1>                0.0000
      3 C3          26.9540  37.0032  39.7712 C.3            1 <1>                0.0000
      4 C4          27.9277  34.8850  38.8726 C.3            1 <1>                0.0000
      5 C5          29.4283  36.6573  39.7943 C.3            1 <1>                0.0000
      6 N6          29.3084  36.0970  41.1469 N.4            1 <1>                1.0000
      7 C7          30.5589  36.0216  39.0981 C.1            1 <1>                0.0000
      8 C8          31.4606  35.5146  38.5431 C.1            1 <1>                0.0000
      9 H9          28.3884  38.1040  37.7313 H              1 <1>                0.0000
     10 H10         29.0820  36.5949  37.0911 H              1 <1>                0.0000
     11 H11         27.3193  36.8415  37.0748 H              1 <1>                0.0000
     12 H12         26.0343  36.8154  39.2172 H              1 <1>                0.0000
     13 H13         26.8815  36.5504  40.7600 H              1 <1>                0.0000
     14 H14         27.1034  38.0780  39.8738 H              1 <1>                0.0000
     15 H15         28.7706  34.4506  38.3351 H              1 <1>                0.0000
     16 H16         27.8551  34.4321  39.8615 H              1 <1>                0.0000
     17 H17         27.0078  34.6971  38.3188 H              1 <1>                0.0000
     18 H18         29.5999  37.7318  39.8598 H              1 <1>                0.0000
     19 H19         32.2671  35.0611  38.0466 H              1 <1>                0.0000
     20 H20         30.2212  35.8259  41.4807 H              1 <1>                0.0000
     21 H21         28.9169  36.7916  41.7651 H              1 <1>                0.0000
     22 H22         28.7050  35.2887  41.1239 H              1 <1>                0.0000
@<TRIPOS>BOND
    1    1    2 1     
    2    1    9 1     
    3    1   10 1     
    4    1   11 1     
    5    2    3 1     
    6    2    4 1     
    7    2    5 1     
    8    3   12 1     
    9    3   13 1     
   10    3   14 1     
   11    4   15 1     
   12    4   16 1     
   13    4   17 1     
   14    5    6 1     
   15    5    7 1     
   16    5   18 1     
   17    6   20 1     
   18    6   21 1     
   19    6   22 1     
   20    7    8 3     
   21    8   19 1     
@<TRIPOS>SUBSTRUCTURE
      1 ****           1
@<TRIPOS>SET
DONOR_HYDROGENS      STATIC     ATOMS    <user>   **** ""
3 20 21 22
ATOM$RED        STATIC     ATOMS    COLORGROUP SYSTEM
3 20 21 22
@<TRIPOS>COMMENT
> <Gold.Version>
2022.2.0

> <Gold.Id.Protein>
1qkm|1qkm_protein|mol2

> <Gold.Protein.RotatedTorsions>
[  496  491  490  487 ] final   80.22 input  -89.99 | X-H torsion

> <Gold.Protein.ActiveResidues>
 MET295  LEU298  THR299  LEU301  ALA302  GLU305  TRP335  MET336  LEU339  MET340 
 GLY342  LEU343  ARG346  PHE356  ILE373  ILE376  PHE377  LEU380  LYS471  GLY472 
 MET473  HIS475  LEU476  LEU477  ASN478  MET479  VAL484  VAL487 

> <Gold.Protein.RotatedAtoms>
   36.7299   33.0977   42.1336 H   0  0  0  0  0  0  0  0  0  0  0  0  # atno 496  bound_to 491 

> <Gold.Score>
     Score     S(PLP)   S(hbond)     S(cho)   S(metal)  DE(clash)   DE(tors)     intcor
     28.68     -25.70       1.00       0.00       0.00       0.00       0.01       0.00

> <Gold.PLP.Fitness>
28.6816

> <Gold.PLP.PLP>
-25.7008

> <Gold.PLP.part.hbond>
-1.0000

> <Gold.PLP.part.metal>
0.0000

> <Gold.PLP.part.buried>
-2.2438

> <Gold.PLP.part.nonpolar>
-23.0960

> <Gold.PLP.part.repulsive>
0.0648

> <Gold.PLP.ligand.clash>
0.0000

> <Gold.PLP.ligand.torsion>
0.0096

> <Gold.PLP.Chemscore.Hbond>
1.0000

> <Gold.PLP.Chemscore.CHOScore>
0.0000

> <Gold.PLP.Chemscore.Metal>
0.0000

> <Gold.Chemscore.Hbonds>
donor molecule, donor type, donor heavy atom, donor atom, acceptor molecule, acceptor atom, score
      L1  H     6    20       P1   470  1.00

> <Gold.PLP.Chemscore.Internal.Correction>
0.0000

