#       Name:                EN300-213297_i002
#       Creating user name   aseyller
#       Creation time:       Fri Apr 21 13:56:12 2023


#       File generated by GOLD software.
#

@<TRIPOS>MOLECULE
EN300-213297_i002
    22    21     1
SMALL
USER_CHARGES


@<TRIPOS>ATOM
      1 C1           1.8444   0.3863   0.4160 C.3            1 <1>                0.0000
      2 C2           0.5237  -0.2923   0.0468 C.3            1 <1>                0.0000
      3 C3           0.3997  -0.3720  -1.4761 C.3            1 <1>                0.0000
      4 C4           0.4937  -1.7041   0.6355 C.3            1 <1>                0.0000
      5 C5          -0.6428   0.5208   0.6116 C.3            1 <1>                0.0000
      6 N6          -0.6139   1.8764   0.0464 N.4            1 <1>                1.0000
      7 C7          -1.9134  -0.1321   0.2564 C.1            1 <1>                0.0000
      8 C8          -2.9267  -0.6527  -0.0270 C.1            1 <1>                0.0000
      9 H9           1.8658   1.3921  -0.0034 H              1 <1>                0.0000
     10 H10          1.9328   0.4430   1.5010 H              1 <1>                0.0000
     11 H11          2.6754  -0.1929   0.0136 H              1 <1>                0.0000
     12 H12          1.2307  -0.9512  -1.8785 H              1 <1>                0.0000
     13 H13         -0.5412  -0.8554  -1.7392 H              1 <1>                0.0000
     14 H14          0.4211   0.6339  -1.8955 H              1 <1>                0.0000
     15 H15          0.5821  -1.6474   1.7204 H              1 <1>                0.0000
     16 H16         -0.4472  -2.1876   0.3724 H              1 <1>                0.0000
     17 H17          1.3247  -2.2834   0.2330 H              1 <1>                0.0000
     18 H18         -0.5544   0.5775   1.6966 H              1 <1>                0.0000
     19 H19         -3.8331  -1.1184  -0.2804 H              1 <1>                0.0000
     20 H20         -1.3832   2.4125   0.4189 H              1 <1>                0.0000
     21 H21          0.2570   2.3238   0.2899 H              1 <1>                0.0000
     22 H22         -0.6958   1.8238  -0.9579 H              1 <1>                0.0000
@<TRIPOS>BOND
    1    1    2 1     
    2    1    9 1     
    3    1   10 1     
    4    1   11 1     
    5    2    3 1     
    6    2    4 1     
    7    2    5 1     
    8    3   12 1     
    9    3   13 1     
   10    3   14 1     
   11    4   15 1     
   12    4   16 1     
   13    4   17 1     
   14    5    6 1     
   15    5    7 1     
   16    5   18 1     
   17    6   20 1     
   18    6   21 1     
   19    6   22 1     
   20    7    8 3     
   21    8   19 1     
@<TRIPOS>SUBSTRUCTURE
      1 ****           1
@<TRIPOS>SET
DONOR_HYDROGENS      STATIC     ATOMS    <user>   **** ""
3 20 21 22
ATOM$RED        STATIC     ATOMS    COLORGROUP SYSTEM
3 20 21 22
