#       Name:                EN300-213297_i002
#       Creating user name   aseyller
#       Creation time:       Fri Apr 21 13:56:13 2023


#       File generated by GOLD software.
#

@<TRIPOS>MOLECULE
EN300-213297_i002|amine_1|mol2|527|dock1
    22    21     1
SMALL
USER_CHARGES


@<TRIPOS>ATOM
      1 C1          28.8066  34.6586  39.0923 C.3            1 <1>                0.0000
      2 C2          28.0002  35.8910  39.5073 C.3            1 <1>                0.0000
      3 C3          28.9567  37.0040  39.9402 C.3            1 <1>                0.0000
      4 C4          27.1596  36.3729  38.3233 C.3            1 <1>                0.0000
      5 C5          27.0785  35.5284  40.6733 C.3            1 <1>                0.0000
      6 N6          27.8883  35.2044  41.8553 N.4            1 <1>                1.0000
      7 C7          26.2003  36.6698  40.9779 C.1            1 <1>                0.0000
      8 C8          25.5000  37.5801  41.2209 C.1            1 <1>                0.0000
      9 H9          29.4055  34.3153  39.9357 H              1 <1>                0.0000
     10 H10         28.1252  33.8657  38.7837 H              1 <1>                0.0000
     11 H11         29.4632  34.9169  38.2616 H              1 <1>                0.0000
     12 H12         29.6134  37.2623  39.1096 H              1 <1>                0.0000
     13 H13         28.3823  37.8819  40.2360 H              1 <1>                0.0000
     14 H14         29.5556  36.6606  40.7838 H              1 <1>                0.0000
     15 H15         26.4783  35.5800  38.0148 H              1 <1>                0.0000
     16 H16         26.5852  37.2509  38.6190 H              1 <1>                0.0000
     17 H17         27.8163  36.6313  37.4926 H              1 <1>                0.0000
     18 H18         26.4710  34.6651  40.4013 H              1 <1>                0.0000
     19 H19         24.8735  38.3944  41.4381 H              1 <1>                0.0000
     20 H20         28.4305  36.0120  42.1231 H              1 <1>                0.0000
     21 H21         27.2814  34.9392  42.6164 H              1 <1>                0.0000
     22 H22         28.5093  34.4394  41.6381 H              1 <1>                0.0000
@<TRIPOS>BOND
    1    1    2 1     
    2    1    9 1     
    3    1   10 1     
    4    1   11 1     
    5    2    3 1     
    6    2    4 1     
    7    2    5 1     
    8    3   12 1     
    9    3   13 1     
   10    3   14 1     
   11    4   15 1     
   12    4   16 1     
   13    4   17 1     
   14    5    6 1     
   15    5    7 1     
   16    5   18 1     
   17    6   20 1     
   18    6   21 1     
   19    6   22 1     
   20    7    8 3     
   21    8   19 1     
@<TRIPOS>SUBSTRUCTURE
      1 ****           1
@<TRIPOS>SET
DONOR_HYDROGENS      STATIC     ATOMS    <user>   **** ""
3 20 21 22
ATOM$RED        STATIC     ATOMS    COLORGROUP SYSTEM
3 20 21 22
@<TRIPOS>COMMENT
> <Gold.Version>
2022.2.0

> <Gold.Id.Protein>
1qkm|1qkm_protein|mol2

> <Gold.Protein.RotatedTorsions>
[  496  491  490  487 ] final  117.78 input  -89.99 | X-H torsion

> <Gold.Protein.ActiveResidues>
 MET295  LEU298  THR299  LEU301  ALA302  GLU305  TRP335  MET336  LEU339  MET340 
 GLY342  LEU343  ARG346  PHE356  ILE373  ILE376  PHE377  LEU380  LYS471  GLY472 
 MET473  HIS475  LEU476  LEU477  ASN478  MET479  VAL484  VAL487 

> <Gold.Protein.RotatedAtoms>
   37.0632   32.9407   41.6508 H   0  0  0  0  0  0  0  0  0  0  0  0  # atno 496  bound_to 491 

> <Gold.Score>
     Score     S(PLP)   S(hbond)     S(cho)   S(metal)  DE(clash)   DE(tors)     intcor
     36.48     -30.59       2.00       0.00       0.00       0.00       0.06       0.00

> <Gold.PLP.Fitness>
36.4762

> <Gold.PLP.PLP>
-30.5863

> <Gold.PLP.part.hbond>
-1.0000

> <Gold.PLP.part.metal>
0.0000

> <Gold.PLP.part.buried>
-2.2844

> <Gold.PLP.part.nonpolar>
-27.6466

> <Gold.PLP.part.repulsive>
0.0813

> <Gold.PLP.ligand.clash>
0.0000

> <Gold.PLP.ligand.torsion>
0.0551

> <Gold.PLP.Chemscore.Hbond>
2.0000

> <Gold.PLP.Chemscore.CHOScore>
0.0000

> <Gold.PLP.Chemscore.Metal>
0.0000

> <Gold.Chemscore.Hbonds>
donor molecule, donor type, donor heavy atom, donor atom, acceptor molecule, acceptor atom, score
      L1  H     6    21       P1   582  2.00

> <Gold.PLP.Chemscore.Internal.Correction>
0.0000

