#       Name:                EN300-213297_i002
#       Creating user name   aseyller
#       Creation time:       Fri Apr 21 13:56:16 2023


#       File generated by GOLD software.
#

@<TRIPOS>MOLECULE
EN300-213297_i002|amine_1|mol2|527|dock7
    22    21     1
SMALL
USER_CHARGES


@<TRIPOS>ATOM
      1 C1          29.7750  34.8830  39.6251 C.3            1 <1>                0.0000
      2 C2          28.7827  36.0449  39.5449 C.3            1 <1>                0.0000
      3 C3          29.4146  37.2980  40.1543 C.3            1 <1>                0.0000
      4 C4          28.4285  36.3128  38.0808 C.3            1 <1>                0.0000
      5 C5          27.5131  35.6857  40.3194 C.3            1 <1>                0.0000
      6 N6          27.7836  35.7533  41.7616 N.4            1 <1>                1.0000
      7 C7          26.4431  36.6364  39.9755 C.1            1 <1>                0.0000
      8 C8          25.5899  37.3946  39.7012 C.1            1 <1>                0.0000
      9 H9          30.0273  34.6920  40.6681 H              1 <1>                0.0000
     10 H10         29.3248  33.9902  39.1908 H              1 <1>                0.0000
     11 H11         30.6795  35.1388  39.0735 H              1 <1>                0.0000
     12 H12         30.3191  37.5539  39.6026 H              1 <1>                0.0000
     13 H13         28.7077  38.1258  40.0972 H              1 <1>                0.0000
     14 H14         29.6669  37.1070  41.1974 H              1 <1>                0.0000
     15 H15         27.9784  35.4201  37.6466 H              1 <1>                0.0000
     16 H16         27.7217  37.1407  38.0236 H              1 <1>                0.0000
     17 H17         29.3331  36.5688  37.5291 H              1 <1>                0.0000
     18 H18         27.2000  34.6755  40.0553 H              1 <1>                0.0000
     19 H19         24.8267  38.0728  39.4559 H              1 <1>                0.0000
     20 H20         27.2517  35.0400  42.2373 H              1 <1>                0.0000
     21 H21         28.7679  35.6052  41.9265 H              1 <1>                0.0000
     22 H22         27.5168  36.6613  42.1116 H              1 <1>                0.0000
@<TRIPOS>BOND
    1    1    2 1     
    2    1    9 1     
    3    1   10 1     
    4    1   11 1     
    5    2    3 1     
    6    2    4 1     
    7    2    5 1     
    8    3   12 1     
    9    3   13 1     
   10    3   14 1     
   11    4   15 1     
   12    4   16 1     
   13    4   17 1     
   14    5    6 1     
   15    5    7 1     
   16    5   18 1     
   17    6   20 1     
   18    6   21 1     
   19    6   22 1     
   20    7    8 3     
   21    8   19 1     
@<TRIPOS>SUBSTRUCTURE
      1 ****           1
@<TRIPOS>SET
DONOR_HYDROGENS      STATIC     ATOMS    <user>   **** ""
3 20 21 22
ATOM$RED        STATIC     ATOMS    COLORGROUP SYSTEM
3 20 21 22
@<TRIPOS>COMMENT
> <Gold.Version>
2022.2.0

> <Gold.Id.Protein>
1qkm|1qkm_protein|mol2

> <Gold.Protein.RotatedTorsions>
[  496  491  490  487 ] final  -69.25 input  -89.99 | X-H torsion

> <Gold.Protein.ActiveResidues>
 MET295  LEU298  THR299  LEU301  ALA302  GLU305  TRP335  MET336  LEU339  MET340 
 GLY342  LEU343  ARG346  PHE356  ILE373  ILE376  PHE377  LEU380  LYS471  GLY472 
 MET473  HIS475  LEU476  LEU477  ASN478  MET479  VAL484  VAL487 

> <Gold.Protein.RotatedAtoms>
   36.5719   34.7336   41.3523 H   0  0  0  0  0  0  0  0  0  0  0  0  # atno 496  bound_to 491 

> <Gold.Score>
     Score     S(PLP)   S(hbond)     S(cho)   S(metal)  DE(clash)   DE(tors)     intcor
     30.37     -25.07       1.95       0.00       0.00       0.00       0.28       0.00

> <Gold.PLP.Fitness>
30.3679

> <Gold.PLP.PLP>
-25.0742

> <Gold.PLP.part.hbond>
-1.0000

> <Gold.PLP.part.metal>
0.0000

> <Gold.PLP.part.buried>
-2.0050

> <Gold.PLP.part.nonpolar>
-22.3599

> <Gold.PLP.part.repulsive>
0.0561

> <Gold.PLP.ligand.clash>
0.0000

> <Gold.PLP.ligand.torsion>
0.2811

> <Gold.PLP.Chemscore.Hbond>
1.9520

> <Gold.PLP.Chemscore.CHOScore>
0.0000

> <Gold.PLP.Chemscore.Metal>
0.0000

> <Gold.Chemscore.Hbonds>
donor molecule, donor type, donor heavy atom, donor atom, acceptor molecule, acceptor atom, score
      L1  H     6    20       P1   582  1.95

> <Gold.PLP.Chemscore.Internal.Correction>
0.0000

