#       Name:                EN300-213297_i002
#       Creating user name   aseyller
#       Creation time:       Fri Apr 21 13:56:19 2023


#       File generated by GOLD software.
#

@<TRIPOS>MOLECULE
EN300-213297_i002|amine_1|mol2|527|dock13
    22    21     1
SMALL
USER_CHARGES


@<TRIPOS>ATOM
      1 C1          27.6059  37.0952  38.1553 C.3            1 <1>                0.0000
      2 C2          29.1157  36.9341  38.3437 C.3            1 <1>                0.0000
      3 C3          29.7694  36.6379  36.9925 C.3            1 <1>                0.0000
      4 C4          29.6984  38.2261  38.9199 C.3            1 <1>                0.0000
      5 C5          29.3888  35.7772  39.3070 C.3            1 <1>                0.0000
      6 N6          30.8351  35.5297  39.3774 N.4            1 <1>                1.0000
      7 C7          28.8845  36.1240  40.6457 C.1            1 <1>                0.0000
      8 C8          28.4821  36.4005  41.7133 C.1            1 <1>                0.0000
      9 H9          27.1907  36.1749  37.7448 H              1 <1>                0.0000
     10 H10         27.1401  37.3064  39.1180 H              1 <1>                0.0000
     11 H11         27.4113  37.9194  37.4690 H              1 <1>                0.0000
     12 H12         29.5748  37.4620  36.3063 H              1 <1>                0.0000
     13 H13         30.8451  36.5231  37.1267 H              1 <1>                0.0000
     14 H14         29.3542  35.7175  36.5820 H              1 <1>                0.0000
     15 H15         29.2327  38.4372  39.8825 H              1 <1>                0.0000
     16 H16         30.7741  38.1113  39.0541 H              1 <1>                0.0000
     17 H17         29.5039  39.0502  38.2336 H              1 <1>                0.0000
     18 H18         28.8835  34.8799  38.9496 H              1 <1>                0.0000
     19 H19         28.1222  36.6479  42.6683 H              1 <1>                0.0000
     20 H20         31.3325  36.3878  39.1926 H              1 <1>                0.0000
     21 H21         31.0743  35.1937  40.2982 H              1 <1>                0.0000
     22 H22         31.0916  34.8375  38.6896 H              1 <1>                0.0000
@<TRIPOS>BOND
    1    1    2 1     
    2    1    9 1     
    3    1   10 1     
    4    1   11 1     
    5    2    3 1     
    6    2    4 1     
    7    2    5 1     
    8    3   12 1     
    9    3   13 1     
   10    3   14 1     
   11    4   15 1     
   12    4   16 1     
   13    4   17 1     
   14    5    6 1     
   15    5    7 1     
   16    5   18 1     
   17    6   20 1     
   18    6   21 1     
   19    6   22 1     
   20    7    8 3     
   21    8   19 1     
@<TRIPOS>SUBSTRUCTURE
      1 ****           1
@<TRIPOS>SET
DONOR_HYDROGENS      STATIC     ATOMS    <user>   **** ""
3 20 21 22
ATOM$RED        STATIC     ATOMS    COLORGROUP SYSTEM
3 20 21 22
@<TRIPOS>COMMENT
> <Gold.Version>
2022.2.0

> <Gold.Id.Protein>
1qkm|1qkm_protein|mol2

> <Gold.Protein.RotatedTorsions>
[  496  491  490  487 ] final   43.36 input  -89.99 | X-H torsion

> <Gold.Protein.ActiveResidues>
 MET295  LEU298  THR299  LEU301  ALA302  GLU305  TRP335  MET336  LEU339  MET340 
 GLY342  LEU343  ARG346  PHE356  ILE373  ILE376  PHE377  LEU380  LYS471  GLY472 
 MET473  HIS475  LEU476  LEU477  ASN478  MET479  VAL484  VAL487 

> <Gold.Protein.RotatedAtoms>
   36.4257   33.5510   42.3737 H   0  0  0  0  0  0  0  0  0  0  0  0  # atno 496  bound_to 491 

> <Gold.Score>
     Score     S(PLP)   S(hbond)     S(cho)   S(metal)  DE(clash)   DE(tors)     intcor
     27.84     -24.95       1.00       0.00       0.00       0.00       0.06       0.00

> <Gold.PLP.Fitness>
27.8399

> <Gold.PLP.PLP>
-24.9500

> <Gold.PLP.part.hbond>
-1.0000

> <Gold.PLP.part.metal>
0.0000

> <Gold.PLP.part.buried>
-1.5095

> <Gold.PLP.part.nonpolar>
-22.4097

> <Gold.PLP.part.repulsive>
0.0619

> <Gold.PLP.ligand.clash>
0.0000

> <Gold.PLP.ligand.torsion>
0.0551

> <Gold.PLP.Chemscore.Hbond>
1.0000

> <Gold.PLP.Chemscore.CHOScore>
0.0000

> <Gold.PLP.Chemscore.Metal>
0.0000

> <Gold.Chemscore.Hbonds>
donor molecule, donor type, donor heavy atom, donor atom, acceptor molecule, acceptor atom, score
      L1  H     6    21       P1   470  1.00

> <Gold.PLP.Chemscore.Internal.Correction>
0.0000

