#       Name:                EN300-213297_i002
#       Creating user name   aseyller
#       Creation time:       Fri Apr 21 13:56:20 2023


#       File generated by GOLD software.
#

@<TRIPOS>MOLECULE
EN300-213297_i002|amine_1|mol2|527|dock15
    22    21     1
SMALL
USER_CHARGES


@<TRIPOS>ATOM
      1 C1          25.9236  36.6854  40.1724 C.3            1 <1>                0.0000
      2 C2          26.9928  36.7228  39.0786 C.3            1 <1>                0.0000
      3 C3          26.8875  35.4613  38.2193 C.3            1 <1>                0.0000
      4 C4          26.7809  37.9574  38.2003 C.3            1 <1>                0.0000
      5 C5          28.3792  36.7869  39.7227 C.3            1 <1>                0.0000
      6 N6          28.6793  35.5018  40.3679 N.4            1 <1>                1.0000
      7 C7          29.3886  37.0641  38.6877 C.1            1 <1>                0.0000
      8 C8          30.1937  37.2852  37.8625 C.1            1 <1>                0.0000
      9 H9          26.0746  35.8058  40.7982 H              1 <1>                0.0000
     10 H10         25.9986  37.5842  40.7846 H              1 <1>                0.0000
     11 H11         24.9360  36.6397  39.7136 H              1 <1>                0.0000
     12 H12         25.8999  35.4156  37.7605 H              1 <1>                0.0000
     13 H13         27.6493  35.4879  37.4400 H              1 <1>                0.0000
     14 H14         27.0385  34.5817  38.8451 H              1 <1>                0.0000
     15 H15         26.8558  38.8561  38.8124 H              1 <1>                0.0000
     16 H16         27.5426  37.9841  37.4210 H              1 <1>                0.0000
     17 H17         25.7932  37.9117  37.7414 H              1 <1>                0.0000
     18 H18         28.3966  37.5811  40.4691 H              1 <1>                0.0000
     19 H19         30.9138  37.4829  37.1243 H              1 <1>                0.0000
     20 H20         28.4670  34.7483  39.7314 H              1 <1>                0.0000
     21 H21         29.6573  35.4691  40.6136 H              1 <1>                0.0000
     22 H22         28.1195  35.4054  41.2018 H              1 <1>                0.0000
@<TRIPOS>BOND
    1    1    2 1     
    2    1    9 1     
    3    1   10 1     
    4    1   11 1     
    5    2    3 1     
    6    2    4 1     
    7    2    5 1     
    8    3   12 1     
    9    3   13 1     
   10    3   14 1     
   11    4   15 1     
   12    4   16 1     
   13    4   17 1     
   14    5    6 1     
   15    5    7 1     
   16    5   18 1     
   17    6   20 1     
   18    6   21 1     
   19    6   22 1     
   20    7    8 3     
   21    8   19 1     
@<TRIPOS>SUBSTRUCTURE
      1 ****           1
@<TRIPOS>SET
DONOR_HYDROGENS      STATIC     ATOMS    <user>   **** ""
3 20 21 22
ATOM$RED        STATIC     ATOMS    COLORGROUP SYSTEM
3 20 21 22
@<TRIPOS>COMMENT
> <Gold.Version>
2022.2.0

> <Gold.Id.Protein>
1qkm|1qkm_protein|mol2

> <Gold.Protein.RotatedTorsions>
[  496  491  490  487 ] final -170.38 input  -89.99 | X-H torsion

> <Gold.Protein.ActiveResidues>
 MET295  LEU298  THR299  LEU301  ALA302  GLU305  TRP335  MET336  LEU339  MET340 
 GLY342  LEU343  ARG346  PHE356  ILE373  ILE376  PHE377  LEU380  LYS471  GLY472 
 MET473  HIS475  LEU476  LEU477  ASN478  MET479  VAL484  VAL487 

> <Gold.Protein.RotatedAtoms>
   37.3052   33.6032   40.7981 H   0  0  0  0  0  0  0  0  0  0  0  0  # atno 496  bound_to 491 

> <Gold.Score>
     Score     S(PLP)   S(hbond)     S(cho)   S(metal)  DE(clash)   DE(tors)     intcor
     26.98     -27.28       0.00       0.00       0.00       0.00       0.15       0.00

> <Gold.PLP.Fitness>
26.9805

> <Gold.PLP.PLP>
-27.2820

> <Gold.PLP.part.hbond>
0.0000

> <Gold.PLP.part.metal>
0.0000

> <Gold.PLP.part.buried>
-2.2482

> <Gold.PLP.part.nonpolar>
-25.9546

> <Gold.PLP.part.repulsive>
0.0423

> <Gold.PLP.ligand.clash>
0.0000

> <Gold.PLP.ligand.torsion>
0.1507

> <Gold.PLP.Chemscore.Hbond>
0.0000

> <Gold.PLP.Chemscore.CHOScore>
0.0000

> <Gold.PLP.Chemscore.Metal>
0.0000

> <Gold.PLP.Chemscore.Internal.Correction>
0.0000

