#       Name:                EN300-213297_i002
#       Creating user name   aseyller
#       Creation time:       Fri Apr 21 13:56:21 2023


#       File generated by GOLD software.
#

@<TRIPOS>MOLECULE
EN300-213297_i002|amine_1|mol2|527|dock17
    22    21     1
SMALL
USER_CHARGES


@<TRIPOS>ATOM
      1 C1          32.0950  34.2869  37.6301 C.3            1 <1>                0.0000
      2 C2          32.2092  35.7259  37.1227 C.3            1 <1>                0.0000
      3 C3          30.8785  36.4497  37.3383 C.3            1 <1>                0.0000
      4 C4          33.3150  36.4516  37.8916 C.3            1 <1>                0.0000
      5 C5          32.5479  35.7151  35.6307 C.3            1 <1>                0.0000
      6 N6          31.5328  34.9414  34.9035 N.4            1 <1>                1.0000
      7 C7          32.5693  37.0965  35.1225 C.1            1 <1>                0.0000
      8 C8          32.5863  38.1981  34.7171 C.1            1 <1>                0.0000
      9 H9          31.3072  33.7699  37.0823 H              1 <1>                0.0000
     10 H10         33.0430  33.7713  37.4765 H              1 <1>                0.0000
     11 H11         31.8536  34.2946  38.6929 H              1 <1>                0.0000
     12 H12         30.6372  36.4573  38.4012 H              1 <1>                0.0000
     13 H13         30.9598  37.4748  36.9768 H              1 <1>                0.0000
     14 H14         30.0907  35.9326  36.7905 H              1 <1>                0.0000
     15 H15         34.2629  35.9360  37.7380 H              1 <1>                0.0000
     16 H16         33.3963  37.4768  37.5301 H              1 <1>                0.0000
     17 H17         33.0735  36.4593  38.9545 H              1 <1>                0.0000
     18 H18         33.5269  35.2588  35.4837 H              1 <1>                0.0000
     19 H19         32.6015  39.1835  34.3545 H              1 <1>                0.0000
     20 H20         30.6192  35.1501  35.2775 H              1 <1>                0.0000
     21 H21         31.5599  35.1867  33.9253 H              1 <1>                0.0000
     22 H22         31.7221  33.9559  35.0086 H              1 <1>                0.0000
@<TRIPOS>BOND
    1    1    2 1     
    2    1    9 1     
    3    1   10 1     
    4    1   11 1     
    5    2    3 1     
    6    2    4 1     
    7    2    5 1     
    8    3   12 1     
    9    3   13 1     
   10    3   14 1     
   11    4   15 1     
   12    4   16 1     
   13    4   17 1     
   14    5    6 1     
   15    5    7 1     
   16    5   18 1     
   17    6   20 1     
   18    6   21 1     
   19    6   22 1     
   20    7    8 3     
   21    8   19 1     
@<TRIPOS>SUBSTRUCTURE
      1 ****           1
@<TRIPOS>SET
DONOR_HYDROGENS      STATIC     ATOMS    <user>   **** ""
3 20 21 22
ATOM$RED        STATIC     ATOMS    COLORGROUP SYSTEM
3 20 21 22
@<TRIPOS>COMMENT
> <Gold.Version>
2022.2.0

> <Gold.Id.Protein>
1qkm|1qkm_protein|mol2

> <Gold.Protein.RotatedTorsions>
[  496  491  490  487 ] final  -36.87 input  -89.99 | X-H torsion

> <Gold.Protein.ActiveResidues>
 MET295  LEU298  THR299  LEU301  ALA302  GLU305  TRP335  MET336  LEU339  MET340 
 GLY342  LEU343  ARG346  PHE356  ILE373  ILE376  PHE377  LEU380  LYS471  GLY472 
 MET473  HIS475  LEU476  LEU477  ASN478  MET479  VAL484  VAL487 

> <Gold.Protein.RotatedAtoms>
   36.3467   34.6278   41.8157 H   0  0  0  0  0  0  0  0  0  0  0  0  # atno 496  bound_to 491 

> <Gold.Score>
     Score     S(PLP)   S(hbond)     S(cho)   S(metal)  DE(clash)   DE(tors)     intcor
     27.34     -24.39       1.00       0.00       0.00       0.00       0.02       0.00

> <Gold.PLP.Fitness>
27.3446

> <Gold.PLP.PLP>
-24.3890

> <Gold.PLP.part.hbond>
-1.0000

> <Gold.PLP.part.metal>
0.0000

> <Gold.PLP.part.buried>
2.3834

> <Gold.PLP.part.nonpolar>
-25.9240

> <Gold.PLP.part.repulsive>
0.0630

> <Gold.PLP.ligand.clash>
0.0000

> <Gold.PLP.ligand.torsion>
0.0222

> <Gold.PLP.Chemscore.Hbond>
1.0000

> <Gold.PLP.Chemscore.CHOScore>
0.0000

> <Gold.PLP.Chemscore.Metal>
0.0000

> <Gold.Chemscore.Hbonds>
donor molecule, donor type, donor heavy atom, donor atom, acceptor molecule, acceptor atom, score
      L1  H     6    21       P1  3187  1.00

> <Gold.PLP.Chemscore.Internal.Correction>
0.0000

