#       Name:                EN300-213297_i002
#       Creating user name   aseyller
#       Creation time:       Fri Apr 21 13:56:18 2023


#       File generated by GOLD software.
#

@<TRIPOS>MOLECULE
EN300-213297_i002|amine_1|mol2|527|dock10
    22    21     1
SMALL
USER_CHARGES


@<TRIPOS>ATOM
      1 C1          28.2148  34.7043  39.0973 C.3            1 <1>                0.0000
      2 C2          28.5054  35.9934  39.8686 C.3            1 <1>                0.0000
      3 C3          27.3734  36.9951  39.6323 C.3            1 <1>                0.0000
      4 C4          28.6069  35.6817  41.3630 C.3            1 <1>                0.0000
      5 C5          29.8264  36.5923  39.3815 C.3            1 <1>                0.0000
      6 N6          30.8713  35.5602  39.4077 N.4            1 <1>                1.0000
      7 C7          29.6619  37.0896  38.0058 C.1            1 <1>                0.0000
      8 C8          29.5308  37.4863  36.9088 C.1            1 <1>                0.0000
      9 H9          28.1425  34.9263  38.0326 H              1 <1>                0.0000
     10 H10         29.0213  33.9905  39.2657 H              1 <1>                0.0000
     11 H11         27.2738  34.2776  39.4442 H              1 <1>                0.0000
     12 H12         26.4323  36.5685  39.9792 H              1 <1>                0.0000
     13 H13         27.5803  37.9135  40.1817 H              1 <1>                0.0000
     14 H14         27.3011  37.2172  38.5675 H              1 <1>                0.0000
     15 H15         29.4134  34.9680  41.5314 H              1 <1>                0.0000
     16 H16         28.8139  36.6001  41.9125 H              1 <1>                0.0000
     17 H17         27.6658  35.2550  41.7099 H              1 <1>                0.0000
     18 H18         30.1138  37.4170  40.0340 H              1 <1>                0.0000
     19 H19         29.4134  37.8411  35.9274 H              1 <1>                0.0000
     20 H20         30.5701  34.7630  38.8675 H              1 <1>                0.0000
     21 H21         31.7217  35.9324  39.0124 H              1 <1>                0.0000
     22 H22         31.0396  35.2761  40.3611 H              1 <1>                0.0000
@<TRIPOS>BOND
    1    1    2 1     
    2    1    9 1     
    3    1   10 1     
    4    1   11 1     
    5    2    3 1     
    6    2    4 1     
    7    2    5 1     
    8    3   12 1     
    9    3   13 1     
   10    3   14 1     
   11    4   15 1     
   12    4   16 1     
   13    4   17 1     
   14    5    6 1     
   15    5    7 1     
   16    5   18 1     
   17    6   20 1     
   18    6   21 1     
   19    6   22 1     
   20    7    8 3     
   21    8   19 1     
@<TRIPOS>SUBSTRUCTURE
      1 ****           1
@<TRIPOS>SET
DONOR_HYDROGENS      STATIC     ATOMS    <user>   **** ""
3 20 21 22
ATOM$RED        STATIC     ATOMS    COLORGROUP SYSTEM
3 20 21 22
@<TRIPOS>COMMENT
> <Gold.Version>
2022.2.0

> <Gold.Id.Protein>
1qkm|1qkm_protein|mol2

> <Gold.Protein.RotatedTorsions>
[  496  491  490  487 ] final   39.21 input  -89.99 | X-H torsion

> <Gold.Protein.ActiveResidues>
 MET295  LEU298  THR299  LEU301  ALA302  GLU305  TRP335  MET336  LEU339  MET340 
 GLY342  LEU343  ARG346  PHE356  ILE373  ILE376  PHE377  LEU380  LYS471  GLY472 
 MET473  HIS475  LEU476  LEU477  ASN478  MET479  VAL484  VAL487 

> <Gold.Protein.RotatedAtoms>
   36.3988   33.6133   42.3806 H   0  0  0  0  0  0  0  0  0  0  0  0  # atno 496  bound_to 491 

> <Gold.Score>
     Score     S(PLP)   S(hbond)     S(cho)   S(metal)  DE(clash)   DE(tors)     intcor
     27.85     -25.09       1.00       0.00       0.00       0.00       0.12       0.00

> <Gold.PLP.Fitness>
27.8463

> <Gold.PLP.PLP>
-25.0862

> <Gold.PLP.part.hbond>
-1.0000

> <Gold.PLP.part.metal>
0.0000

> <Gold.PLP.part.buried>
-1.2540

> <Gold.PLP.part.nonpolar>
-23.3571

> <Gold.PLP.part.repulsive>
0.0647

> <Gold.PLP.ligand.clash>
0.0000

> <Gold.PLP.ligand.torsion>
0.1200

> <Gold.PLP.Chemscore.Hbond>
1.0000

> <Gold.PLP.Chemscore.CHOScore>
0.0000

> <Gold.PLP.Chemscore.Metal>
0.0000

> <Gold.Chemscore.Hbonds>
donor molecule, donor type, donor heavy atom, donor atom, acceptor molecule, acceptor atom, score
      L1  H     6    22       P1   470  1.00

> <Gold.PLP.Chemscore.Internal.Correction>
0.0000

