#       Name:                EN300-213297_i002
#       Creating user name   aseyller
#       Creation time:       Fri Apr 21 13:56:17 2023


#       File generated by GOLD software.
#

@<TRIPOS>MOLECULE
EN300-213297_i002|amine_1|mol2|527|dock9
    22    21     1
SMALL
USER_CHARGES


@<TRIPOS>ATOM
      1 C1          29.8267  35.2265  39.6488 C.3            1 <1>                0.0000
      2 C2          28.8347  36.2610  40.1845 C.3            1 <1>                0.0000
      3 C3          29.5487  37.1903  41.1683 C.3            1 <1>                0.0000
      4 C4          28.2761  37.0823  39.0209 C.3            1 <1>                0.0000
      5 C5          27.6878  35.5448  40.9003 C.3            1 <1>                0.0000
      6 N6          28.1504  35.0666  42.2100 N.4            1 <1>                1.0000
      7 C7          26.5662  36.4797  41.0873 C.1            1 <1>                0.0000
      8 C8          25.6717  37.2251  41.2365 C.1            1 <1>                0.0000
      9 H9          30.2246  34.6414  40.4778 H              1 <1>                0.0000
     10 H10         29.3180  34.5645  38.9479 H              1 <1>                0.0000
     11 H11         30.6438  35.7368  39.1389 H              1 <1>                0.0000
     12 H12         30.3658  37.7005  40.6584 H              1 <1>                0.0000
     13 H13         28.8421  37.9272  41.5500 H              1 <1>                0.0000
     14 H14         29.9467  36.6050  41.9973 H              1 <1>                0.0000
     15 H15         27.7675  36.4204  38.3201 H              1 <1>                0.0000
     16 H16         27.5695  37.8194  39.4026 H              1 <1>                0.0000
     17 H17         29.0933  37.5927  38.5111 H              1 <1>                0.0000
     18 H18         27.3578  34.6970  40.2998 H              1 <1>                0.0000
     19 H19         24.8716  37.8920  41.3699 H              1 <1>                0.0000
     20 H20         28.7252  34.2469  42.0849 H              1 <1>                0.0000
     21 H21         28.6900  35.7902  42.6608 H              1 <1>                0.0000
     22 H22         27.3536  34.8342  42.7838 H              1 <1>                0.0000
@<TRIPOS>BOND
    1    1    2 1     
    2    1    9 1     
    3    1   10 1     
    4    1   11 1     
    5    2    3 1     
    6    2    4 1     
    7    2    5 1     
    8    3   12 1     
    9    3   13 1     
   10    3   14 1     
   11    4   15 1     
   12    4   16 1     
   13    4   17 1     
   14    5    6 1     
   15    5    7 1     
   16    5   18 1     
   17    6   20 1     
   18    6   21 1     
   19    6   22 1     
   20    7    8 3     
   21    8   19 1     
@<TRIPOS>SUBSTRUCTURE
      1 ****           1
@<TRIPOS>SET
DONOR_HYDROGENS      STATIC     ATOMS    <user>   **** ""
3 20 21 22
ATOM$RED        STATIC     ATOMS    COLORGROUP SYSTEM
3 20 21 22
@<TRIPOS>COMMENT
> <Gold.Version>
2022.2.0

> <Gold.Id.Protein>
1qkm|1qkm_protein|mol2

> <Gold.Protein.RotatedTorsions>
[  496  491  490  487 ] final   72.97 input  -89.99 | X-H torsion

> <Gold.Protein.ActiveResidues>
 MET295  LEU298  THR299  LEU301  ALA302  GLU305  TRP335  MET336  LEU339  MET340 
 GLY342  LEU343  ARG346  PHE356  ILE373  ILE376  PHE377  LEU380  LYS471  GLY472 
 MET473  HIS475  LEU476  LEU477  ASN478  MET479  VAL484  VAL487 

> <Gold.Protein.RotatedAtoms>
   36.6639   33.1679   42.2039 H   0  0  0  0  0  0  0  0  0  0  0  0  # atno 496  bound_to 491 

> <Gold.Score>
     Score     S(PLP)   S(hbond)     S(cho)   S(metal)  DE(clash)   DE(tors)     intcor
     30.38     -25.19       2.00       0.00       0.00       0.12       0.35       0.00

> <Gold.PLP.Fitness>
30.3805

> <Gold.PLP.PLP>
-25.1907

> <Gold.PLP.part.hbond>
-1.0000

> <Gold.PLP.part.metal>
0.0000

> <Gold.PLP.part.buried>
0.0218

> <Gold.PLP.part.nonpolar>
-26.0139

> <Gold.PLP.part.repulsive>
0.5806

> <Gold.PLP.ligand.clash>
0.1175

> <Gold.PLP.ligand.torsion>
0.3463

> <Gold.PLP.Chemscore.Hbond>
2.0000

> <Gold.PLP.Chemscore.CHOScore>
0.0000

> <Gold.PLP.Chemscore.Metal>
0.0000

> <Gold.Chemscore.Hbonds>
donor molecule, donor type, donor heavy atom, donor atom, acceptor molecule, acceptor atom, score
      L1  H     6    22       P1   582  2.00

> <Gold.PLP.Chemscore.Internal.Correction>
0.0000

