#       Name:                EN300-213297_i002
#       Creating user name   aseyller
#       Creation time:       Fri Apr 21 13:56:23 2023


#       File generated by GOLD software.
#

@<TRIPOS>MOLECULE
EN300-213297_i002|amine_1|mol2|527|dock20
    22    21     1
SMALL
USER_CHARGES


@<TRIPOS>ATOM
      1 C1          28.4466  37.0193  39.7763 C.3            1 <1>                0.0000
      2 C2          27.1114  36.3419  39.4608 C.3            1 <1>                0.0000
      3 C3          26.1793  37.3453  38.7785 C.3            1 <1>                0.0000
      4 C4          27.3506  35.1526  38.5287 C.3            1 <1>                0.0000
      5 C5          26.4691  35.8510  40.7598 C.3            1 <1>                0.0000
      6 N6          27.4811  35.1727  41.5806 N.4            1 <1>                1.0000
      7 C7          25.9241  36.9993  41.5022 C.1            1 <1>                0.0000
      8 C8          25.4895  37.9151  42.0942 C.1            1 <1>                0.0000
      9 H9          28.2762  37.8666  40.4403 H              1 <1>                0.0000
     10 H10         29.1107  36.3044  40.2623 H              1 <1>                0.0000
     11 H11         28.9041  37.3691  38.8509 H              1 <1>                0.0000
     12 H12         26.6369  37.6951  37.8531 H              1 <1>                0.0000
     13 H13         25.2281  36.8628  38.5537 H              1 <1>                0.0000
     14 H14         26.0090  38.1927  39.4426 H              1 <1>                0.0000
     15 H15         28.0146  34.4378  39.0147 H              1 <1>                0.0000
     16 H16         26.3993  34.6700  38.3039 H              1 <1>                0.0000
     17 H17         27.8080  35.5024  37.6032 H              1 <1>                0.0000
     18 H18         25.6640  35.1542  40.5262 H              1 <1>                0.0000
     19 H19         25.1008  38.7342  42.6239 H              1 <1>                0.0000
     20 H20         27.7455  34.3048  41.1392 H              1 <1>                0.0000
     21 H21         28.2928  35.7650  41.6712 H              1 <1>                0.0000
     22 H22         27.0998  34.9823  42.4952 H              1 <1>                0.0000
@<TRIPOS>BOND
    1    1    2 1     
    2    1    9 1     
    3    1   10 1     
    4    1   11 1     
    5    2    3 1     
    6    2    4 1     
    7    2    5 1     
    8    3   12 1     
    9    3   13 1     
   10    3   14 1     
   11    4   15 1     
   12    4   16 1     
   13    4   17 1     
   14    5    6 1     
   15    5    7 1     
   16    5   18 1     
   17    6   20 1     
   18    6   21 1     
   19    6   22 1     
   20    7    8 3     
   21    8   19 1     
@<TRIPOS>SUBSTRUCTURE
      1 ****           1
@<TRIPOS>SET
DONOR_HYDROGENS      STATIC     ATOMS    <user>   **** ""
3 20 21 22
ATOM$RED        STATIC     ATOMS    COLORGROUP SYSTEM
3 20 21 22
@<TRIPOS>COMMENT
> <Gold.Version>
2022.2.0

> <Gold.Id.Protein>
1qkm|1qkm_protein|mol2

> <Gold.Protein.RotatedTorsions>
[  496  491  490  487 ] final  -48.37 input  -89.99 | X-H torsion

> <Gold.Protein.ActiveResidues>
 MET295  LEU298  THR299  LEU301  ALA302  GLU305  TRP335  MET336  LEU339  MET340 
 GLY342  LEU343  ARG346  PHE356  ILE373  ILE376  PHE377  LEU380  LYS471  GLY472 
 MET473  HIS475  LEU476  LEU477  ASN478  MET479  VAL484  VAL487 

> <Gold.Protein.RotatedAtoms>
   36.4138   34.6971   41.6531 H   0  0  0  0  0  0  0  0  0  0  0  0  # atno 496  bound_to 491 

> <Gold.Score>
     Score     S(PLP)   S(hbond)     S(cho)   S(metal)  DE(clash)   DE(tors)     intcor
     31.88     -26.50       2.00       0.00       0.00       0.00       0.31       0.00

> <Gold.PLP.Fitness>
31.8820

> <Gold.PLP.PLP>
-26.4999

> <Gold.PLP.part.hbond>
-1.0000

> <Gold.PLP.part.metal>
0.0000

> <Gold.PLP.part.buried>
1.1749

> <Gold.PLP.part.nonpolar>
-26.8437

> <Gold.PLP.part.repulsive>
0.0597

> <Gold.PLP.ligand.clash>
0.0000

> <Gold.PLP.ligand.torsion>
0.3090

> <Gold.PLP.Chemscore.Hbond>
2.0000

> <Gold.PLP.Chemscore.CHOScore>
0.0000

> <Gold.PLP.Chemscore.Metal>
0.0000

> <Gold.Chemscore.Hbonds>
donor molecule, donor type, donor heavy atom, donor atom, acceptor molecule, acceptor atom, score
      L1  H     6    22       P1   582  2.00

> <Gold.PLP.Chemscore.Internal.Correction>
0.0000

