#       Name:                EN300-213297_i002
#       Creating user name   aseyller
#       Creation time:       Fri Apr 21 13:56:14 2023


#       File generated by GOLD software.
#

@<TRIPOS>MOLECULE
EN300-213297_i002|amine_1|mol2|527|dock4
    22    21     1
SMALL
USER_CHARGES


@<TRIPOS>ATOM
      1 C1          32.1697  37.2294  37.5566 C.3            1 <1>                0.0000
      2 C2          32.8282  36.5343  36.3632 C.3            1 <1>                0.0000
      3 C3          34.2472  36.1055  36.7423 C.3            1 <1>                0.0000
      4 C4          32.0093  35.3016  35.9754 C.3            1 <1>                0.0000
      5 C5          32.8869  37.5010  35.1788 C.3            1 <1>                0.0000
      6 N6          33.4210  36.8022  34.0022 N.4            1 <1>                1.0000
      7 C7          31.5329  37.9968  34.8825 C.1            1 <1>                0.0000
      8 C8          30.4530  38.3920  34.6462 C.1            1 <1>                0.0000
      9 H9          32.7531  38.1076  37.8329 H              1 <1>                0.0000
     10 H10         31.1587  37.5348  37.2866 H              1 <1>                0.0000
     11 H11         32.1279  36.5407  38.4004 H              1 <1>                0.0000
     12 H12         34.2054  35.4169  37.5860 H              1 <1>                0.0000
     13 H13         34.7164  35.6104  35.8920 H              1 <1>                0.0000
     14 H14         34.8306  36.9838  37.0186 H              1 <1>                0.0000
     15 H15         30.9985  35.6070  35.7054 H              1 <1>                0.0000
     16 H16         32.4786  34.8064  35.1252 H              1 <1>                0.0000
     17 H17         31.9677  34.6128  36.8192 H              1 <1>                0.0000
     18 H18         33.5351  38.3414  35.4275 H              1 <1>                0.0000
     19 H19         29.4871  38.7456  34.4349 H              1 <1>                0.0000
     20 H20         33.9995  37.4343  33.4695 H              1 <1>                0.0000
     21 H21         33.9728  36.0125  34.3018 H              1 <1>                0.0000
     22 H22         32.6571  36.4799  33.4271 H              1 <1>                0.0000
@<TRIPOS>BOND
    1    1    2 1     
    2    1    9 1     
    3    1   10 1     
    4    1   11 1     
    5    2    3 1     
    6    2    4 1     
    7    2    5 1     
    8    3   12 1     
    9    3   13 1     
   10    3   14 1     
   11    4   15 1     
   12    4   16 1     
   13    4   17 1     
   14    5    6 1     
   15    5    7 1     
   16    5   18 1     
   17    6   20 1     
   18    6   21 1     
   19    6   22 1     
   20    7    8 3     
   21    8   19 1     
@<TRIPOS>SUBSTRUCTURE
      1 ****           1
@<TRIPOS>SET
DONOR_HYDROGENS      STATIC     ATOMS    <user>   **** ""
3 20 21 22
ATOM$RED        STATIC     ATOMS    COLORGROUP SYSTEM
3 20 21 22
@<TRIPOS>COMMENT
> <Gold.Version>
2022.2.0

> <Gold.Id.Protein>
1qkm|1qkm_protein|mol2

> <Gold.Protein.RotatedTorsions>
[  496  491  490  487 ] final   42.26 input  -89.99 | X-H torsion

> <Gold.Protein.ActiveResidues>
 MET295  LEU298  THR299  LEU301  ALA302  GLU305  TRP335  MET336  LEU339  MET340 
 GLY342  LEU343  ARG346  PHE356  ILE373  ILE376  PHE377  LEU380  LYS471  GLY472 
 MET473  HIS475  LEU476  LEU477  ASN478  MET479  VAL484  VAL487 

> <Gold.Protein.RotatedAtoms>
   36.4184   33.5673   42.3759 H   0  0  0  0  0  0  0  0  0  0  0  0  # atno 496  bound_to 491 

> <Gold.Score>
     Score     S(PLP)   S(hbond)     S(cho)   S(metal)  DE(clash)   DE(tors)     intcor
     28.90     -23.47       1.83       0.00       0.00       0.00       0.03       0.00

> <Gold.PLP.Fitness>
28.8962

> <Gold.PLP.PLP>
-23.4694

> <Gold.PLP.part.hbond>
-2.0000

> <Gold.PLP.part.metal>
0.0000

> <Gold.PLP.part.buried>
-2.6597

> <Gold.PLP.part.nonpolar>
-19.7503

> <Gold.PLP.part.repulsive>
0.1095

> <Gold.PLP.ligand.clash>
0.0000

> <Gold.PLP.ligand.torsion>
0.0297

> <Gold.PLP.Chemscore.Hbond>
1.8288

> <Gold.PLP.Chemscore.CHOScore>
0.0000

> <Gold.PLP.Chemscore.Metal>
0.0000

> <Gold.Chemscore.Hbonds>
donor molecule, donor type, donor heavy atom, donor atom, acceptor molecule, acceptor atom, score
      L1  H     6    20       P1  3229  1.00
      L1  H     6    22       P1  3187  0.83

> <Gold.PLP.Chemscore.Internal.Correction>
0.0000

