#       Name:                EN300-213297_i002
#       Creating user name   aseyller
#       Creation time:       Fri Apr 21 13:56:20 2023


#       File generated by GOLD software.
#

@<TRIPOS>MOLECULE
EN300-213297_i002|amine_1|mol2|527|dock14
    22    21     1
SMALL
USER_CHARGES


@<TRIPOS>ATOM
      1 C1          30.0564  37.7508  36.4208 C.3            1 <1>                0.0000
      2 C2          31.3550  37.7846  35.6124 C.3            1 <1>                0.0000
      3 C3          31.1187  38.5330  34.2990 C.3            1 <1>                0.0000
      4 C4          32.4396  38.5008  36.4195 C.3            1 <1>                0.0000
      5 C5          31.8050  36.3538  35.3103 C.3            1 <1>                0.0000
      6 N6          32.9886  36.3860  34.4407 N.4            1 <1>                1.0000
      7 C7          32.1395  35.6685  36.5694 C.1            1 <1>                0.0000
      8 C8          32.4061  35.1220  37.5735 C.1            1 <1>                0.0000
      9 H9          29.2836  37.2406  35.8458 H              1 <1>                0.0000
     10 H10         30.2247  37.2177  37.3566 H              1 <1>                0.0000
     11 H11         29.7357  38.7700  36.6360 H              1 <1>                0.0000
     12 H12         30.7981  39.5522  34.5142 H              1 <1>                0.0000
     13 H13         32.0439  38.5571  33.7231 H              1 <1>                0.0000
     14 H14         30.3459  38.0227  33.7240 H              1 <1>                0.0000
     15 H15         32.6079  37.9677  37.3552 H              1 <1>                0.0000
     16 H16         33.3648  38.5249  35.8436 H              1 <1>                0.0000
     17 H17         32.1190  39.5201  36.6346 H              1 <1>                0.0000
     18 H18         30.9995  35.8181  34.8080 H              1 <1>                0.0000
     19 H19         32.6447  34.6331  38.4717 H              1 <1>                0.0000
     20 H20         33.7605  35.9331  34.9065 H              1 <1>                0.0000
     21 H21         32.7856  35.9029  33.5785 H              1 <1>                0.0000
     22 H22         33.2324  37.3443  34.2401 H              1 <1>                0.0000
@<TRIPOS>BOND
    1    1    2 1     
    2    1    9 1     
    3    1   10 1     
    4    1   11 1     
    5    2    3 1     
    6    2    4 1     
    7    2    5 1     
    8    3   12 1     
    9    3   13 1     
   10    3   14 1     
   11    4   15 1     
   12    4   16 1     
   13    4   17 1     
   14    5    6 1     
   15    5    7 1     
   16    5   18 1     
   17    6   20 1     
   18    6   21 1     
   19    6   22 1     
   20    7    8 3     
   21    8   19 1     
@<TRIPOS>SUBSTRUCTURE
      1 ****           1
@<TRIPOS>SET
DONOR_HYDROGENS      STATIC     ATOMS    <user>   **** ""
3 20 21 22
ATOM$RED        STATIC     ATOMS    COLORGROUP SYSTEM
3 20 21 22
@<TRIPOS>COMMENT
> <Gold.Version>
2022.2.0

> <Gold.Id.Protein>
1qkm|1qkm_protein|mol2

> <Gold.Protein.RotatedTorsions>
[  496  491  490  487 ] final  -43.12 input  -89.99 | X-H torsion

> <Gold.Protein.ActiveResidues>
 MET295  LEU298  THR299  LEU301  ALA302  GLU305  TRP335  MET336  LEU339  MET340 
 GLY342  LEU343  ARG346  PHE356  ILE373  ILE376  PHE377  LEU380  LYS471  GLY472 
 MET473  HIS475  LEU476  LEU477  ASN478  MET479  VAL484  VAL487 

> <Gold.Protein.RotatedAtoms>
   36.3811   34.6696   41.7283 H   0  0  0  0  0  0  0  0  0  0  0  0  # atno 496  bound_to 491 

> <Gold.Score>
     Score     S(PLP)   S(hbond)     S(cho)   S(metal)  DE(clash)   DE(tors)     intcor
     27.87     -24.94       1.00       0.00       0.00       0.00       0.03       0.00

> <Gold.PLP.Fitness>
27.8740

> <Gold.PLP.PLP>
-24.9418

> <Gold.PLP.part.hbond>
-1.0000

> <Gold.PLP.part.metal>
0.0000

> <Gold.PLP.part.buried>
-2.3568

> <Gold.PLP.part.nonpolar>
-21.6861

> <Gold.PLP.part.repulsive>
0.0818

> <Gold.PLP.ligand.clash>
0.0000

> <Gold.PLP.ligand.torsion>
0.0339

> <Gold.PLP.Chemscore.Hbond>
1.0000

> <Gold.PLP.Chemscore.CHOScore>
0.0000

> <Gold.PLP.Chemscore.Metal>
0.0000

> <Gold.Chemscore.Hbonds>
donor molecule, donor type, donor heavy atom, donor atom, acceptor molecule, acceptor atom, score
      L1  H     6    21       P1  3187  1.00

> <Gold.PLP.Chemscore.Internal.Correction>
0.0000

