#       Name:                EN300-213297_i002
#       Creating user name   aseyller
#       Creation time:       Fri Apr 21 13:56:22 2023


#       File generated by GOLD software.
#

@<TRIPOS>MOLECULE
EN300-213297_i002|amine_1|mol2|527|dock18
    22    21     1
SMALL
USER_CHARGES


@<TRIPOS>ATOM
      1 C1          30.3918  35.3243  39.1017 C.3            1 <1>                0.0000
      2 C2          29.2979  36.3807  39.2706 C.3            1 <1>                0.0000
      3 C3          29.3981  36.9998  40.6662 C.3            1 <1>                0.0000
      4 C4          29.4762  37.4729  38.2142 C.3            1 <1>                0.0000
      5 C5          27.9257  35.7257  39.1006 C.3            1 <1>                0.0000
      6 N6          27.6163  34.9211  40.2901 N.4            1 <1>                1.0000
      7 C7          26.9011  36.7694  38.9338 C.1            1 <1>                0.0000
      8 C8          26.0841  37.6018  38.8009 C.1            1 <1>                0.0000
      9 H9          30.2648  34.5462  39.8543 H              1 <1>                0.0000
     10 H10         30.3204  34.8833  38.1074 H              1 <1>                0.0000
     11 H11         31.3693  35.7909  39.2229 H              1 <1>                0.0000
     12 H12         30.3756  37.4664  40.7874 H              1 <1>                0.0000
     13 H13         28.6188  37.7524  40.7866 H              1 <1>                0.0000
     14 H14         29.2711  36.2216  41.4188 H              1 <1>                0.0000
     15 H15         29.4049  37.0319  37.2200 H              1 <1>                0.0000
     16 H16         28.6969  38.2256  38.3346 H              1 <1>                0.0000
     17 H17         30.4537  37.9396  38.3354 H              1 <1>                0.0000
     18 H18         27.9365  35.0832  38.2201 H              1 <1>                0.0000
     19 H19         25.3532  38.3463  38.6820 H              1 <1>                0.0000
     20 H20         26.6544  35.0699  40.5558 H              1 <1>                0.0000
     21 H21         27.7608  33.9445  40.0824 H              1 <1>                0.0000
     22 H22         28.2213  35.1967  41.0491 H              1 <1>                0.0000
@<TRIPOS>BOND
    1    1    2 1     
    2    1    9 1     
    3    1   10 1     
    4    1   11 1     
    5    2    3 1     
    6    2    4 1     
    7    2    5 1     
    8    3   12 1     
    9    3   13 1     
   10    3   14 1     
   11    4   15 1     
   12    4   16 1     
   13    4   17 1     
   14    5    6 1     
   15    5    7 1     
   16    5   18 1     
   17    6   20 1     
   18    6   21 1     
   19    6   22 1     
   20    7    8 3     
   21    8   19 1     
@<TRIPOS>SUBSTRUCTURE
      1 ****           1
@<TRIPOS>SET
DONOR_HYDROGENS      STATIC     ATOMS    <user>   **** ""
3 20 21 22
ATOM$RED        STATIC     ATOMS    COLORGROUP SYSTEM
3 20 21 22
@<TRIPOS>COMMENT
> <Gold.Version>
2022.2.0

> <Gold.Id.Protein>
1qkm|1qkm_protein|mol2

> <Gold.Protein.RotatedTorsions>
[  496  491  490  487 ] final  145.43 input  -89.99 | X-H torsion

> <Gold.Protein.ActiveResidues>
 MET295  LEU298  THR299  LEU301  ALA302  GLU305  TRP335  MET336  LEU339  MET340 
 GLY342  LEU343  ARG346  PHE356  ILE373  ILE376  PHE377  LEU380  LYS471  GLY472 
 MET473  HIS475  LEU476  LEU477  ASN478  MET479  VAL484  VAL487 

> <Gold.Protein.RotatedAtoms>
   37.2423   33.0652   41.2564 H   0  0  0  0  0  0  0  0  0  0  0  0  # atno 496  bound_to 491 

> <Gold.Score>
     Score     S(PLP)   S(hbond)     S(cho)   S(metal)  DE(clash)   DE(tors)     intcor
     27.77     -28.32       0.00       0.00       0.00       0.00       0.28       0.00

> <Gold.PLP.Fitness>
27.7699

> <Gold.PLP.PLP>
-28.3244

> <Gold.PLP.part.hbond>
0.0000

> <Gold.PLP.part.metal>
0.0000

> <Gold.PLP.part.buried>
0.2168

> <Gold.PLP.part.nonpolar>
-28.8080

> <Gold.PLP.part.repulsive>
0.0269

> <Gold.PLP.ligand.clash>
0.0000

> <Gold.PLP.ligand.torsion>
0.2772

> <Gold.PLP.Chemscore.Hbond>
0.0000

> <Gold.PLP.Chemscore.CHOScore>
0.0000

> <Gold.PLP.Chemscore.Metal>
0.0000

> <Gold.PLP.Chemscore.Internal.Correction>
0.0000

