#       Name:                EN300-213297_i002
#       Creating user name   aseyller
#       Creation time:       Fri Apr 21 13:56:23 2023


#       File generated by GOLD software.
#

@<TRIPOS>MOLECULE
EN300-213297_i002|amine_1|mol2|527|dock19
    22    21     1
SMALL
USER_CHARGES


@<TRIPOS>ATOM
      1 C1          30.7753  35.5996  39.0980 C.3            1 <1>                0.0000
      2 C2          29.4486  36.3608  39.1393 C.3            1 <1>                0.0000
      3 C3          29.7210  37.8644  39.0635 C.3            1 <1>                0.0000
      4 C4          28.5816  35.9390  37.9514 C.3            1 <1>                0.0000
      5 C5          28.7170  36.0401  40.4442 C.3            1 <1>                0.0000
      6 N6          29.4157  36.6794  41.5672 N.4            1 <1>                1.0000
      7 C7          27.3375  36.5484  40.3709 C.1            1 <1>                0.0000
      8 C8          26.2373  36.9538  40.3126 C.1            1 <1>                0.0000
      9 H9          31.3930  35.9001  39.9443 H              1 <1>                0.0000
     10 H10         30.5813  34.5283  39.1519 H              1 <1>                0.0000
     11 H11         31.2965  35.8281  38.1685 H              1 <1>                0.0000
     12 H12         30.2422  38.0929  38.1340 H              1 <1>                0.0000
     13 H13         28.7759  38.4068  39.0929 H              1 <1>                0.0000
     14 H14         30.3387  38.1649  39.9098 H              1 <1>                0.0000
     15 H15         28.3876  34.8678  38.0053 H              1 <1>                0.0000
     16 H16         27.6364  36.4814  37.9807 H              1 <1>                0.0000
     17 H17         29.1028  36.1676  37.0218 H              1 <1>                0.0000
     18 H18         28.6989  34.9606  40.5946 H              1 <1>                0.0000
     19 H19         25.2532  37.3164  40.2604 H              1 <1>                0.0000
     20 H20         30.2289  36.1343  41.8114 H              1 <1>                0.0000
     21 H21         29.7017  37.6092  41.2998 H              1 <1>                0.0000
     22 H22         28.7961  36.7334  42.3617 H              1 <1>                0.0000
@<TRIPOS>BOND
    1    1    2 1     
    2    1    9 1     
    3    1   10 1     
    4    1   11 1     
    5    2    3 1     
    6    2    4 1     
    7    2    5 1     
    8    3   12 1     
    9    3   13 1     
   10    3   14 1     
   11    4   15 1     
   12    4   16 1     
   13    4   17 1     
   14    5    6 1     
   15    5    7 1     
   16    5   18 1     
   17    6   20 1     
   18    6   21 1     
   19    6   22 1     
   20    7    8 3     
   21    8   19 1     
@<TRIPOS>SUBSTRUCTURE
      1 ****           1
@<TRIPOS>SET
DONOR_HYDROGENS      STATIC     ATOMS    <user>   **** ""
3 20 21 22
ATOM$RED        STATIC     ATOMS    COLORGROUP SYSTEM
3 20 21 22
@<TRIPOS>COMMENT
> <Gold.Version>
2022.2.0

> <Gold.Id.Protein>
1qkm|1qkm_protein|mol2

> <Gold.Protein.RotatedTorsions>
[  496  491  490  487 ] final -110.15 input  -89.99 | X-H torsion

> <Gold.Protein.ActiveResidues>
 MET295  LEU298  THR299  LEU301  ALA302  GLU305  TRP335  MET336  LEU339  MET340 
 GLY342  LEU343  ARG346  PHE356  ILE373  ILE376  PHE377  LEU380  LYS471  GLY472 
 MET473  HIS475  LEU476  LEU477  ASN478  MET479  VAL484  VAL487 

> <Gold.Protein.RotatedAtoms>
   36.9415   34.4739   40.8724 H   0  0  0  0  0  0  0  0  0  0  0  0  # atno 496  bound_to 491 

> <Gold.Score>
     Score     S(PLP)   S(hbond)     S(cho)   S(metal)  DE(clash)   DE(tors)     intcor
     27.29     -24.67       1.00       0.00       0.00       0.00       0.19       0.00

> <Gold.PLP.Fitness>
27.2910

> <Gold.PLP.PLP>
-24.6669

> <Gold.PLP.part.hbond>
-1.0000

> <Gold.PLP.part.metal>
0.0000

> <Gold.PLP.part.buried>
-1.8946

> <Gold.PLP.part.nonpolar>
-21.9407

> <Gold.PLP.part.repulsive>
0.0522

> <Gold.PLP.ligand.clash>
0.0000

> <Gold.PLP.ligand.torsion>
0.1880

> <Gold.PLP.Chemscore.Hbond>
1.0000

> <Gold.PLP.Chemscore.CHOScore>
0.0000

> <Gold.PLP.Chemscore.Metal>
0.0000

> <Gold.Chemscore.Hbonds>
donor molecule, donor type, donor heavy atom, donor atom, acceptor molecule, acceptor atom, score
      L1  H     6    20       P1   470  1.00

> <Gold.PLP.Chemscore.Internal.Correction>
0.0000

