#       Name:                EN300-213297_i002
#       Creating user name   aseyller
#       Creation time:       Fri Apr 21 13:56:21 2023


#       File generated by GOLD software.
#

@<TRIPOS>MOLECULE
EN300-213297_i002|amine_1|mol2|527|dock16
    22    21     1
SMALL
USER_CHARGES


@<TRIPOS>ATOM
      1 C1          29.6103  36.3534  39.1776 C.3            1 <1>                0.0000
      2 C2          28.4885  36.2991  40.2166 C.3            1 <1>                0.0000
      3 C3          28.1500  34.8393  40.5256 C.3            1 <1>                0.0000
      4 C4          28.9458  36.9988  41.4979 C.3            1 <1>                0.0000
      5 C5          27.2479  37.0045  39.6650 C.3            1 <1>                0.0000
      6 N6          26.7756  36.2988  38.4663 N.4            1 <1>                1.0000
      7 C7          26.1875  37.0020  40.6859 C.1            1 <1>                0.0000
      8 C8          25.3416  36.9999  41.5000 C.1            1 <1>                0.0000
      9 H9          29.2846  35.8549  38.2647 H              1 <1>                0.0000
     10 H10         29.8516  37.3934  38.9575 H              1 <1>                0.0000
     11 H11         30.4941  35.8508  39.5705 H              1 <1>                0.0000
     12 H12         29.0337  34.3367  40.9185 H              1 <1>                0.0000
     13 H13         27.3507  34.8006  41.2657 H              1 <1>                0.0000
     14 H14         27.8242  34.3408  39.6126 H              1 <1>                0.0000
     15 H15         29.1870  38.0387  41.2779 H              1 <1>                0.0000
     16 H16         28.1465  36.9601  42.2382 H              1 <1>                0.0000
     17 H17         29.8295  36.4962  41.8910 H              1 <1>                0.0000
     18 H18         27.5000  38.0328  39.4056 H              1 <1>                0.0000
     19 H19         24.5851  36.9982  42.2282 H              1 <1>                0.0000
     20 H20         27.1837  35.3766  38.4363 H              1 <1>                0.0000
     21 H21         25.7701  36.2209  38.4962 H              1 <1>                0.0000
     22 H22         27.0487  36.8144  37.6431 H              1 <1>                0.0000
@<TRIPOS>BOND
    1    1    2 1     
    2    1    9 1     
    3    1   10 1     
    4    1   11 1     
    5    2    3 1     
    6    2    4 1     
    7    2    5 1     
    8    3   12 1     
    9    3   13 1     
   10    3   14 1     
   11    4   15 1     
   12    4   16 1     
   13    4   17 1     
   14    5    6 1     
   15    5    7 1     
   16    5   18 1     
   17    6   20 1     
   18    6   21 1     
   19    6   22 1     
   20    7    8 3     
   21    8   19 1     
@<TRIPOS>SUBSTRUCTURE
      1 ****           1
@<TRIPOS>SET
DONOR_HYDROGENS      STATIC     ATOMS    <user>   **** ""
3 20 21 22
ATOM$RED        STATIC     ATOMS    COLORGROUP SYSTEM
3 20 21 22
@<TRIPOS>COMMENT
> <Gold.Version>
2022.2.0

> <Gold.Id.Protein>
1qkm|1qkm_protein|mol2

> <Gold.Protein.RotatedTorsions>
[  496  491  490  487 ] final  -81.19 input  -89.99 | X-H torsion

> <Gold.Protein.ActiveResidues>
 MET295  LEU298  THR299  LEU301  ALA302  GLU305  TRP335  MET336  LEU339  MET340 
 GLY342  LEU343  ARG346  PHE356  ILE373  ILE376  PHE377  LEU380  LYS471  GLY472 
 MET473  HIS475  LEU476  LEU477  ASN478  MET479  VAL484  VAL487 

> <Gold.Protein.RotatedAtoms>
   36.6766   34.7013   41.1897 H   0  0  0  0  0  0  0  0  0  0  0  0  # atno 496  bound_to 491 

> <Gold.Score>
     Score     S(PLP)   S(hbond)     S(cho)   S(metal)  DE(clash)   DE(tors)     intcor
     27.60     -27.61       0.00       0.00       0.00       0.00       0.01       0.00

> <Gold.PLP.Fitness>
27.5966

> <Gold.PLP.PLP>
-27.6129

> <Gold.PLP.part.hbond>
0.0000

> <Gold.PLP.part.metal>
0.0000

> <Gold.PLP.part.buried>
-1.2246

> <Gold.PLP.part.nonpolar>
-26.4062

> <Gold.PLP.part.repulsive>
0.0453

> <Gold.PLP.ligand.clash>
0.0000

> <Gold.PLP.ligand.torsion>
0.0081

> <Gold.PLP.Chemscore.Hbond>
0.0000

> <Gold.PLP.Chemscore.CHOScore>
0.0000

> <Gold.PLP.Chemscore.Metal>
0.0000

> <Gold.PLP.Chemscore.Internal.Correction>
0.0000

