#       Name:                EN300-213297_i002
#       Creating user name   aseyller
#       Creation time:       Fri Apr 21 13:56:16 2023


#       File generated by GOLD software.
#

@<TRIPOS>MOLECULE
EN300-213297_i002|amine_1|mol2|527|dock8
    22    21     1
SMALL
USER_CHARGES


@<TRIPOS>ATOM
      1 C1          29.0151  37.1262  40.4121 C.3            1 <1>                0.0000
      2 C2          28.2299  35.8134  40.4410 C.3            1 <1>                0.0000
      3 C3          28.6736  34.9281  39.2747 C.3            1 <1>                0.0000
      4 C4          28.4965  35.0886  41.7616 C.3            1 <1>                0.0000
      5 C5          26.7343  36.1108  40.3152 C.3            1 <1>                0.0000
      6 N6          26.2330  36.6472  41.5875 N.4            1 <1>                1.0000
      7 C7          26.5189  37.0999  39.2466 C.1            1 <1>                0.0000
      8 C8          26.3473  37.8889  38.3944 C.1            1 <1>                0.0000
      9 H9          28.8251  37.6426  39.4712 H              1 <1>                0.0000
     10 H10         28.6990  37.7569  41.2430 H              1 <1>                0.0000
     11 H11         30.0805  36.9144  40.5016 H              1 <1>                0.0000
     12 H12         29.7390  34.7162  39.3642 H              1 <1>                0.0000
     13 H13         28.1142  33.9927  39.2952 H              1 <1>                0.0000
     14 H14         28.4836  35.4445  38.3337 H              1 <1>                0.0000
     15 H15         28.1805  35.7192  42.5926 H              1 <1>                0.0000
     16 H16         27.9371  34.1532  41.7822 H              1 <1>                0.0000
     17 H17         29.5620  34.8766  41.8512 H              1 <1>                0.0000
     18 H18         26.2004  35.1919  40.0727 H              1 <1>                0.0000
     19 H19         26.1937  38.5945  37.6321 H              1 <1>                0.0000
     20 H20         26.8439  37.3845  41.9056 H              1 <1>                0.0000
     21 H21         25.3029  37.0149  41.4543 H              1 <1>                0.0000
     22 H22         26.2080  35.9105  42.2765 H              1 <1>                0.0000
@<TRIPOS>BOND
    1    1    2 1     
    2    1    9 1     
    3    1   10 1     
    4    1   11 1     
    5    2    3 1     
    6    2    4 1     
    7    2    5 1     
    8    3   12 1     
    9    3   13 1     
   10    3   14 1     
   11    4   15 1     
   12    4   16 1     
   13    4   17 1     
   14    5    6 1     
   15    5    7 1     
   16    5   18 1     
   17    6   20 1     
   18    6   21 1     
   19    6   22 1     
   20    7    8 3     
   21    8   19 1     
@<TRIPOS>SUBSTRUCTURE
      1 ****           1
@<TRIPOS>SET
DONOR_HYDROGENS      STATIC     ATOMS    <user>   **** ""
3 20 21 22
ATOM$RED        STATIC     ATOMS    COLORGROUP SYSTEM
3 20 21 22
@<TRIPOS>COMMENT
> <Gold.Version>
2022.2.0

> <Gold.Id.Protein>
1qkm|1qkm_protein|mol2

> <Gold.Protein.RotatedTorsions>
[  496  491  490  487 ] final  -30.75 input  -89.99 | X-H torsion

> <Gold.Protein.ActiveResidues>
 MET295  LEU298  THR299  LEU301  ALA302  GLU305  TRP335  MET336  LEU339  MET340 
 GLY342  LEU343  ARG346  PHE356  ILE373  ILE376  PHE377  LEU380  LYS471  GLY472 
 MET473  HIS475  LEU476  LEU477  ASN478  MET479  VAL484  VAL487 

> <Gold.Protein.RotatedAtoms>
   36.3180   34.5778   41.8982 H   0  0  0  0  0  0  0  0  0  0  0  0  # atno 496  bound_to 491 

> <Gold.Score>
     Score     S(PLP)   S(hbond)     S(cho)   S(metal)  DE(clash)   DE(tors)     intcor
     30.97     -25.61       2.00       0.00       0.00       0.00       0.32       0.00

> <Gold.PLP.Fitness>
30.9702

> <Gold.PLP.PLP>
-25.6126

> <Gold.PLP.part.hbond>
-0.9804

> <Gold.PLP.part.metal>
0.0000

> <Gold.PLP.part.buried>
-0.4841

> <Gold.PLP.part.nonpolar>
-24.8266

> <Gold.PLP.part.repulsive>
0.0699

> <Gold.PLP.ligand.clash>
0.0000

> <Gold.PLP.ligand.torsion>
0.3212

> <Gold.PLP.Chemscore.Hbond>
2.0000

> <Gold.PLP.Chemscore.CHOScore>
0.0000

> <Gold.PLP.Chemscore.Metal>
0.0000

> <Gold.Chemscore.Hbonds>
donor molecule, donor type, donor heavy atom, donor atom, acceptor molecule, acceptor atom, score
      L1  H     6    22       P1   582  2.00

> <Gold.PLP.Chemscore.Internal.Correction>
0.0000

