#       Name:                EN300-213297_i002
#       Creating user name   aseyller
#       Creation time:       Fri Apr 21 13:56:15 2023


#       File generated by GOLD software.
#

@<TRIPOS>MOLECULE
EN300-213297_i002|amine_1|mol2|527|dock6
    22    21     1
SMALL
USER_CHARGES


@<TRIPOS>ATOM
      1 C1          25.6819  37.6192  38.7356 C.3            1 <1>                0.0000
      2 C2          26.8326  36.8679  39.4083 C.3            1 <1>                0.0000
      3 C3          26.8284  35.4094  38.9461 C.3            1 <1>                0.0000
      4 C4          28.1617  37.5209  39.0241 C.3            1 <1>                0.0000
      5 C5          26.6579  36.9220  40.9273 C.3            1 <1>                0.0000
      6 N6          25.5034  36.1016  41.3171 N.4            1 <1>                1.0000
      7 C7          27.8713  36.4032  41.5795 C.1            1 <1>                0.0000
      8 C8          28.8390  35.9895  42.0996 C.1            1 <1>                0.0000
      9 H9          24.7350  37.1540  39.0093 H              1 <1>                0.0000
     10 H10         25.6849  38.6584  39.0648 H              1 <1>                0.0000
     11 H11         25.8063  37.5807  37.6534 H              1 <1>                0.0000
     12 H12         26.9528  35.3708  37.8639 H              1 <1>                0.0000
     13 H13         27.6482  34.8741  39.4253 H              1 <1>                0.0000
     14 H14         25.8814  34.9442  39.2198 H              1 <1>                0.0000
     15 H15         28.1647  38.5600  39.3533 H              1 <1>                0.0000
     16 H16         28.9815  36.9856  39.5033 H              1 <1>                0.0000
     17 H17         28.2861  37.4823  37.9419 H              1 <1>                0.0000
     18 H18         26.4918  37.9538  41.2374 H              1 <1>                0.0000
     19 H19         29.7046  35.6194  42.5649 H              1 <1>                0.0000
     20 H20         24.8277  36.6779  41.7959 H              1 <1>                0.0000
     21 H21         25.0808  35.7023  40.4925 H              1 <1>                0.0000
     22 H22         25.8089  35.3611  41.9307 H              1 <1>                0.0000
@<TRIPOS>BOND
    1    1    2 1     
    2    1    9 1     
    3    1   10 1     
    4    1   11 1     
    5    2    3 1     
    6    2    4 1     
    7    2    5 1     
    8    3   12 1     
    9    3   13 1     
   10    3   14 1     
   11    4   15 1     
   12    4   16 1     
   13    4   17 1     
   14    5    6 1     
   15    5    7 1     
   16    5   18 1     
   17    6   20 1     
   18    6   21 1     
   19    6   22 1     
   20    7    8 3     
   21    8   19 1     
@<TRIPOS>SUBSTRUCTURE
      1 ****           1
@<TRIPOS>SET
DONOR_HYDROGENS      STATIC     ATOMS    <user>   **** ""
3 20 21 22
ATOM$RED        STATIC     ATOMS    COLORGROUP SYSTEM
3 20 21 22
@<TRIPOS>COMMENT
> <Gold.Version>
2022.2.0

> <Gold.Id.Protein>
1qkm|1qkm_protein|mol2

> <Gold.Protein.RotatedTorsions>
[  496  491  490  487 ] final  -38.03 input  -89.99 | X-H torsion

> <Gold.Protein.ActiveResidues>
 MET295  LEU298  THR299  LEU301  ALA302  GLU305  TRP335  MET336  LEU339  MET340 
 GLY342  LEU343  ARG346  PHE356  ILE373  ILE376  PHE377  LEU380  LYS471  GLY472 
 MET473  HIS475  LEU476  LEU477  ASN478  MET479  VAL484  VAL487 

> <Gold.Protein.RotatedAtoms>
   36.3527   34.6363   41.7996 H   0  0  0  0  0  0  0  0  0  0  0  0  # atno 496  bound_to 491 

> <Gold.Score>
     Score     S(PLP)   S(hbond)     S(cho)   S(metal)  DE(clash)   DE(tors)     intcor
     33.19     -27.47       2.00       0.00       0.00       0.00       0.14       0.00

> <Gold.PLP.Fitness>
33.1940

> <Gold.PLP.PLP>
-27.4666

> <Gold.PLP.part.hbond>
-1.0000

> <Gold.PLP.part.metal>
0.0000

> <Gold.PLP.part.buried>
-1.6826

> <Gold.PLP.part.nonpolar>
-24.6614

> <Gold.PLP.part.repulsive>
0.0948

> <Gold.PLP.ligand.clash>
0.0000

> <Gold.PLP.ligand.torsion>
0.1363

> <Gold.PLP.Chemscore.Hbond>
2.0000

> <Gold.PLP.Chemscore.CHOScore>
0.0000

> <Gold.PLP.Chemscore.Metal>
0.0000

> <Gold.Chemscore.Hbonds>
donor molecule, donor type, donor heavy atom, donor atom, acceptor molecule, acceptor atom, score
      L1  H     6    22       P1   582  2.00

> <Gold.PLP.Chemscore.Internal.Correction>
0.0000

