#       Name:                EN300-213297_i002
#       Creating user name   aseyller
#       Creation time:       Fri Apr 21 13:56:14 2023


#       File generated by GOLD software.
#

@<TRIPOS>MOLECULE
EN300-213297_i002|amine_1|mol2|527|dock3
    22    21     1
SMALL
USER_CHARGES


@<TRIPOS>ATOM
      1 C1          27.5796  35.1950  38.7718 C.3            1 <1>                0.0000
      2 C2          28.6864  35.8715  39.5832 C.3            1 <1>                0.0000
      3 C3          29.9999  35.1121  39.3861 C.3            1 <1>                0.0000
      4 C4          28.8563  37.3161  39.1088 C.3            1 <1>                0.0000
      5 C5          28.3098  35.8626  41.0661 C.3            1 <1>                0.0000
      6 N6          29.3194  36.6053  41.8323 N.4            1 <1>                1.0000
      7 C7          26.9940  36.4989  41.2419 C.1            1 <1>                0.0000
      8 C8          25.9447  37.0062  41.3823 C.1            1 <1>                0.0000
      9 H9          27.4585  34.1659  39.1098 H              1 <1>                0.0000
     10 H10         26.6438  35.7362  38.9122 H              1 <1>                0.0000
     11 H11         27.8479  35.2013  37.7154 H              1 <1>                0.0000
     12 H12         30.2683  35.1184  38.3297 H              1 <1>                0.0000
     13 H13         30.7885  35.5939  39.9641 H              1 <1>                0.0000
     14 H14         29.8788  34.0829  39.7241 H              1 <1>                0.0000
     15 H15         27.9206  37.8571  39.2491 H              1 <1>                0.0000
     16 H16         29.6450  37.7980  39.6868 H              1 <1>                0.0000
     17 H17         29.1248  37.3224  38.0523 H              1 <1>                0.0000
     18 H18         28.2664  34.8338  41.4237 H              1 <1>                0.0000
     19 H19         25.0061  37.4600  41.5077 H              1 <1>                0.0000
     20 H20         29.1473  36.4861  42.8193 H              1 <1>                0.0000
     21 H21         30.2381  36.2549  41.6062 H              1 <1>                0.0000
     22 H22         29.2659  37.5852  41.5975 H              1 <1>                0.0000
@<TRIPOS>BOND
    1    1    2 1     
    2    1    9 1     
    3    1   10 1     
    4    1   11 1     
    5    2    3 1     
    6    2    4 1     
    7    2    5 1     
    8    3   12 1     
    9    3   13 1     
   10    3   14 1     
   11    4   15 1     
   12    4   16 1     
   13    4   17 1     
   14    5    6 1     
   15    5    7 1     
   16    5   18 1     
   17    6   20 1     
   18    6   21 1     
   19    6   22 1     
   20    7    8 3     
   21    8   19 1     
@<TRIPOS>SUBSTRUCTURE
      1 ****           1
@<TRIPOS>SET
DONOR_HYDROGENS      STATIC     ATOMS    <user>   **** ""
3 20 21 22
ATOM$RED        STATIC     ATOMS    COLORGROUP SYSTEM
3 20 21 22
@<TRIPOS>COMMENT
> <Gold.Version>
2022.2.0

> <Gold.Id.Protein>
1qkm|1qkm_protein|mol2

> <Gold.Protein.RotatedTorsions>
[  496  491  490  487 ] final  -73.79 input  -89.99 | X-H torsion

> <Gold.Protein.ActiveResidues>
 MET295  LEU298  THR299  LEU301  ALA302  GLU305  TRP335  MET336  LEU339  MET340 
 GLY342  LEU343  ARG346  PHE356  ILE373  ILE376  PHE377  LEU380  LYS471  GLY472 
 MET473  HIS475  LEU476  LEU477  ASN478  MET479  VAL484  VAL487 

> <Gold.Protein.RotatedAtoms>
   36.6109   34.7258   41.2891 H   0  0  0  0  0  0  0  0  0  0  0  0  # atno 496  bound_to 491 

> <Gold.Score>
     Score     S(PLP)   S(hbond)     S(cho)   S(metal)  DE(clash)   DE(tors)     intcor
     32.09     -29.17       0.99       0.00       0.00       0.00       0.03       0.00

> <Gold.PLP.Fitness>
32.0861

> <Gold.PLP.PLP>
-29.1695

> <Gold.PLP.part.hbond>
-1.0000

> <Gold.PLP.part.metal>
0.0000

> <Gold.PLP.part.buried>
-2.6503

> <Gold.PLP.part.nonpolar>
-26.2169

> <Gold.PLP.part.repulsive>
0.0572

> <Gold.PLP.ligand.clash>
0.0000

> <Gold.PLP.ligand.torsion>
0.0297

> <Gold.PLP.Chemscore.Hbond>
0.9920

> <Gold.PLP.Chemscore.CHOScore>
0.0000

> <Gold.PLP.Chemscore.Metal>
0.0000

> <Gold.Chemscore.Hbonds>
donor molecule, donor type, donor heavy atom, donor atom, acceptor molecule, acceptor atom, score
      L1  H     6    21       P1   470  0.99

> <Gold.PLP.Chemscore.Internal.Correction>
0.0000

