#       Name:                EN300-213297_i002
#       Creating user name   aseyller
#       Creation time:       Fri Apr 21 13:56:18 2023


#       File generated by GOLD software.
#

@<TRIPOS>MOLECULE
EN300-213297_i002|amine_1|mol2|527|dock11
    22    21     1
SMALL
USER_CHARGES


@<TRIPOS>ATOM
      1 C1          26.4346  36.9989  41.3792 C.3            1 <1>                0.0000
      2 C2          27.3762  36.2132  40.4643 C.3            1 <1>                0.0000
      3 C3          27.4076  34.7476  40.9025 C.3            1 <1>                0.0000
      4 C4          26.8776  36.3033  39.0207 C.3            1 <1>                0.0000
      5 C5          28.7851  36.8029  40.5551 C.3            1 <1>                0.0000
      6 N6          29.2587  36.7283  41.9436 N.4            1 <1>                1.0000
      7 C7          29.6938  36.0387  39.6849 C.1            1 <1>                0.0000
      8 C8          30.4186  35.4294  38.9910 C.1            1 <1>                0.0000
      9 H9          26.7898  36.9347  42.4076 H              1 <1>                0.0000
     10 H10         26.4122  38.0430  41.0669 H              1 <1>                0.0000
     11 H11         25.4309  36.5788  41.3145 H              1 <1>                0.0000
     12 H12         26.4039  34.3275  40.8378 H              1 <1>                0.0000
     13 H13         28.0784  34.1878  40.2507 H              1 <1>                0.0000
     14 H14         27.7628  34.6834  41.9310 H              1 <1>                0.0000
     15 H15         26.8552  37.3474  38.7085 H              1 <1>                0.0000
     16 H16         27.5484  35.7435  38.3689 H              1 <1>                0.0000
     17 H17         25.8739  35.8831  38.9560 H              1 <1>                0.0000
     18 H18         28.7644  37.8442  40.2336 H              1 <1>                0.0000
     19 H19         31.0669  34.8843  38.3702 H              1 <1>                0.0000
     20 H20         28.6481  36.1262  42.4753 H              1 <1>                0.0000
     21 H21         30.1961  36.3556  41.9597 H              1 <1>                0.0000
     22 H22         29.2569  37.6521  42.3495 H              1 <1>                0.0000
@<TRIPOS>BOND
    1    1    2 1     
    2    1    9 1     
    3    1   10 1     
    4    1   11 1     
    5    2    3 1     
    6    2    4 1     
    7    2    5 1     
    8    3   12 1     
    9    3   13 1     
   10    3   14 1     
   11    4   15 1     
   12    4   16 1     
   13    4   17 1     
   14    5    6 1     
   15    5    7 1     
   16    5   18 1     
   17    6   20 1     
   18    6   21 1     
   19    6   22 1     
   20    7    8 3     
   21    8   19 1     
@<TRIPOS>SUBSTRUCTURE
      1 ****           1
@<TRIPOS>SET
DONOR_HYDROGENS      STATIC     ATOMS    <user>   **** ""
3 20 21 22
ATOM$RED        STATIC     ATOMS    COLORGROUP SYSTEM
3 20 21 22
@<TRIPOS>COMMENT
> <Gold.Version>
2022.2.0

> <Gold.Id.Protein>
1qkm|1qkm_protein|mol2

> <Gold.Protein.RotatedTorsions>
[  496  491  490  487 ] final -110.01 input  -89.99 | X-H torsion

> <Gold.Protein.ActiveResidues>
 MET295  LEU298  THR299  LEU301  ALA302  GLU305  TRP335  MET336  LEU339  MET340 
 GLY342  LEU343  ARG346  PHE356  ILE373  ILE376  PHE377  LEU380  LYS471  GLY472 
 MET473  HIS475  LEU476  LEU477  ASN478  MET479  VAL484  VAL487 

> <Gold.Protein.RotatedAtoms>
   36.9403   34.4754   40.8736 H   0  0  0  0  0  0  0  0  0  0  0  0  # atno 496  bound_to 491 

> <Gold.Score>
     Score     S(PLP)   S(hbond)     S(cho)   S(metal)  DE(clash)   DE(tors)     intcor
     30.12     -27.12       1.00       0.00       0.00       0.00       0.00       0.00

> <Gold.PLP.Fitness>
30.1181

> <Gold.PLP.PLP>
-27.1192

> <Gold.PLP.part.hbond>
-1.0000

> <Gold.PLP.part.metal>
0.0000

> <Gold.PLP.part.buried>
-1.8010

> <Gold.PLP.part.nonpolar>
-24.9999

> <Gold.PLP.part.repulsive>
0.0523

> <Gold.PLP.ligand.clash>
0.0000

> <Gold.PLP.ligand.torsion>
0.0006

> <Gold.PLP.Chemscore.Hbond>
1.0000

> <Gold.PLP.Chemscore.CHOScore>
0.0000

> <Gold.PLP.Chemscore.Metal>
0.0000

> <Gold.Chemscore.Hbonds>
donor molecule, donor type, donor heavy atom, donor atom, acceptor molecule, acceptor atom, score
      L1  H     6    21       P1   470  1.00

> <Gold.PLP.Chemscore.Internal.Correction>
0.0000

