#       Name:                EN300-213297_i002
#       Creating user name   aseyller
#       Creation time:       Fri Apr 21 13:56:13 2023


#       File generated by GOLD software.
#

@<TRIPOS>MOLECULE
EN300-213297_i002|amine_1|mol2|527|dock2
    22    21     1
SMALL
USER_CHARGES


@<TRIPOS>ATOM
      1 C1          27.6217  34.9277  39.0981 C.3            1 <1>                0.0000
      2 C2          27.4680  36.3410  39.6639 C.3            1 <1>                0.0000
      3 C3          27.0575  37.2973  38.5424 C.3            1 <1>                0.0000
      4 C4          26.3931  36.3404  40.7526 C.3            1 <1>                0.0000
      5 C5          28.7998  36.7984  40.2623 C.3            1 <1>                0.0000
      6 N6          29.0847  36.0202  41.4752 N.4            1 <1>                1.0000
      7 C7          29.8764  36.5889  39.2805 C.1            1 <1>                0.0000
      8 C8          30.7351  36.4218  38.4977 C.1            1 <1>                0.0000
      9 H9          28.3874  34.9281  38.3225 H              1 <1>                0.0000
     10 H10         27.9140  34.2463  39.8972 H              1 <1>                0.0000
     11 H11         26.6729  34.6019  38.6718 H              1 <1>                0.0000
     12 H12         26.1088  36.9715  38.1161 H              1 <1>                0.0000
     13 H13         26.9481  38.3042  38.9455 H              1 <1>                0.0000
     14 H14         27.8234  37.2977  37.7668 H              1 <1>                0.0000
     15 H15         26.6854  35.6590  41.5516 H              1 <1>                0.0000
     16 H16         26.2835  37.3473  41.1557 H              1 <1>                0.0000
     17 H17         25.4442  36.0146  40.3263 H              1 <1>                0.0000
     18 H18         28.7398  37.8569  40.5154 H              1 <1>                0.0000
     19 H19         31.5032  36.2724  37.7974 H              1 <1>                0.0000
     20 H20         28.4021  35.2832  41.5700 H              1 <1>                0.0000
     21 H21         30.0073  35.6175  41.4075 H              1 <1>                0.0000
     22 H22         29.0402  36.6255  42.2813 H              1 <1>                0.0000
@<TRIPOS>BOND
    1    1    2 1     
    2    1    9 1     
    3    1   10 1     
    4    1   11 1     
    5    2    3 1     
    6    2    4 1     
    7    2    5 1     
    8    3   12 1     
    9    3   13 1     
   10    3   14 1     
   11    4   15 1     
   12    4   16 1     
   13    4   17 1     
   14    5    6 1     
   15    5    7 1     
   16    5   18 1     
   17    6   20 1     
   18    6   21 1     
   19    6   22 1     
   20    7    8 3     
   21    8   19 1     
@<TRIPOS>SUBSTRUCTURE
      1 ****           1
@<TRIPOS>SET
DONOR_HYDROGENS      STATIC     ATOMS    <user>   **** ""
3 20 21 22
ATOM$RED        STATIC     ATOMS    COLORGROUP SYSTEM
3 20 21 22
@<TRIPOS>COMMENT
> <Gold.Version>
2022.2.0

> <Gold.Id.Protein>
1qkm|1qkm_protein|mol2

> <Gold.Protein.RotatedTorsions>
[  496  491  490  487 ] final    6.26 input  -89.99 | X-H torsion

> <Gold.Protein.ActiveResidues>
 MET295  LEU298  THR299  LEU301  ALA302  GLU305  TRP335  MET336  LEU339  MET340 
 GLY342  LEU343  ARG346  PHE356  ILE373  ILE376  PHE377  LEU380  LYS471  GLY472 
 MET473  HIS475  LEU476  LEU477  ASN478  MET479  VAL484  VAL487 

> <Gold.Protein.RotatedAtoms>
   36.2663   34.1224   42.2835 H   0  0  0  0  0  0  0  0  0  0  0  0  # atno 496  bound_to 491 

> <Gold.Score>
     Score     S(PLP)   S(hbond)     S(cho)   S(metal)  DE(clash)   DE(tors)     intcor
     31.41     -28.67       1.00       0.00       0.00       0.00       0.13       0.00

> <Gold.PLP.Fitness>
31.4096

> <Gold.PLP.PLP>
-28.6711

> <Gold.PLP.part.hbond>
-1.0000

> <Gold.PLP.part.metal>
0.0000

> <Gold.PLP.part.buried>
-2.8238

> <Gold.PLP.part.nonpolar>
-25.3091

> <Gold.PLP.part.repulsive>
0.0707

> <Gold.PLP.ligand.clash>
0.0000

> <Gold.PLP.ligand.torsion>
0.1308

> <Gold.PLP.Chemscore.Hbond>
1.0000

> <Gold.PLP.Chemscore.CHOScore>
0.0000

> <Gold.PLP.Chemscore.Metal>
0.0000

> <Gold.Chemscore.Hbonds>
donor molecule, donor type, donor heavy atom, donor atom, acceptor molecule, acceptor atom, score
      L1  H     6    21       P1   470  1.00

> <Gold.PLP.Chemscore.Internal.Correction>
0.0000

