#       Name:                EN300-77635_i001
#       Creating user name   aseyller
#       Creation time:       Fri Apr 21 15:46:51 2023


#       File generated by GOLD software.
#

@<TRIPOS>MOLECULE
EN300-77635_i001|amine_1|mol2|995|dock18
    39    40     1
SMALL
USER_CHARGES


@<TRIPOS>ATOM
      1 C1          33.2574  36.1316  35.4534 C.3            1 <1>                0.0000
      2 N2          32.7941  37.5218  35.5574 N.4            1 <1>                1.0000
      3 C3          31.6399  37.7209  34.6708 C.3            1 <1>                0.0000
      4 C4          31.2059  39.1872  34.7200 C.3            1 <1>                0.0000
      5 C5          30.9752  39.6023  36.1744 C.3            1 <1>                0.0000
      6 C6          29.5921  39.1844  36.6027 C.2            1 <1>                0.0000
      7 O7          28.6457  39.9127  36.3909 O.2            1 <1>                0.0000
      8 N8          29.4067  38.0013  37.2211 N.am           1 <1>                0.0000
      9 C9          30.5342  37.0944  37.4930 C.3            1 <1>                0.0000
     10 C10         30.6829  36.9711  39.0086 C.3            1 <1>                0.0000
     11 C11         29.3498  36.7091  39.6587 C.ar           1 <1>                0.0000
     12 C12         29.3536  36.1574  40.9348 C.ar           1 <1>                0.0000
     13 C13         28.1705  35.8998  41.5927 C.ar           1 <1>                0.0000
     14 C14         26.9620  36.1951  40.9780 C.ar           1 <1>                0.0000
     15 O15         25.7901  35.9495  41.6209 O.3            1 <1>                0.0000
     16 C16         26.9573  36.7419  39.7061 C.ar           1 <1>                0.0000
     17 C17         28.1506  36.9941  39.0444 C.ar           1 <1>                0.0000
     18 C18         28.0744  37.5682  37.6558 C.3            1 <1>                0.0000
     19 H19         32.4528  35.4575  35.7473 H              1 <1>                0.0000
     20 H20         33.5492  35.9219  34.4243 H              1 <1>                0.0000
     21 H21         34.1138  35.9838  36.1113 H              1 <1>                0.0000
     22 H22         31.9164  37.4580  33.6497 H              1 <1>                0.0000
     23 H23         30.8161  37.0869  34.9988 H              1 <1>                0.0000
     24 H24         31.9852  39.8116  34.2832 H              1 <1>                0.0000
     25 H25         30.2817  39.3117  34.1557 H              1 <1>                0.0000
     26 H26         31.7148  39.1181  36.8122 H              1 <1>                0.0000
     27 H27         31.0716  40.6843  36.2632 H              1 <1>                0.0000
     28 H28         30.3315  36.1142  37.0613 H              1 <1>                0.0000
     29 H29         31.4489  37.5046  37.0648 H              1 <1>                0.0000
     30 H30         31.3608  36.1485  39.2365 H              1 <1>                0.0000
     31 H31         31.0989  37.8976  39.4045 H              1 <1>                0.0000
     32 H32         30.2933  35.9280  41.4151 H              1 <1>                0.0000
     33 H33         28.1838  35.4693  42.5830 H              1 <1>                0.0000
     34 H34         26.0184  36.9734  39.2254 H              1 <1>                0.0000
     35 H35         27.3966  38.4217  37.6529 H              1 <1>                0.0000
     36 H36         27.7025  36.8080  36.9689 H              1 <1>                0.0000
     37 H37         32.5238  37.7158  36.5099 H              1 <1>                0.0000
     38 H38         33.5388  38.1457  35.2853 H              1 <1>                0.0000
     39 H39         25.8854  35.4179  42.4230 H              1 <1>                0.0000
@<TRIPOS>BOND
    1    1    2 1     
    2    1   19 1     
    3    1   20 1     
    4    1   21 1     
    5    2    3 1     
    6    2   37 1     
    7    2   38 1     
    8    3    4 1     
    9    3   22 1     
   10    3   23 1     
   11    4    5 1     
   12    4   24 1     
   13    4   25 1     
   14    5    6 1     
   15    5   26 1     
   16    5   27 1     
   17    6    7 2     
   18    6    8 am    
   19    8    9 1     
   20    8   18 1     
   21    9   10 1     
   22    9   28 1     
   23    9   29 1     
   24   10   11 1     
   25   10   30 1     
   26   10   31 1     
   27   11   12 ar    
   28   11   17 ar    
   29   12   13 ar    
   30   12   32 1     
   31   13   14 ar    
   32   13   33 1     
   33   14   15 1     
   34   14   16 ar    
   35   15   39 1     
   36   16   17 ar    
   37   16   34 1     
   38   17   18 1     
   39   18   35 1     
   40   18   36 1     
@<TRIPOS>SUBSTRUCTURE
      1 ****           1
@<TRIPOS>SET
DONOR_HYDROGENS      STATIC     ATOMS    <user>   **** ""
3 37 38 39
ATOM$RED        STATIC     ATOMS    COLORGROUP SYSTEM
3 37 38 39
@<TRIPOS>COMMENT
> <Gold.Version>
2022.2.0

> <Gold.Id.Protein>
1qkm|1qkm_protein|mol2

> <Gold.Protein.RotatedTorsions>
[  496  491  490  487 ] final -106.70 input  -89.99 | X-H torsion

> <Gold.Protein.ActiveResidues>
 MET295  LEU298  THR299  LEU301  ALA302  GLU305  TRP335  MET336  LEU339  MET340 
 GLY342  LEU343  ARG346  PHE356  ILE373  ILE376  PHE377  LEU380  LYS471  GLY472 
 MET473  HIS475  LEU476  LEU477  ASN478  MET479  VAL484  VAL487 

> <Gold.Protein.RotatedAtoms>
   36.9107   34.5109   40.9025 H   0  0  0  0  0  0  0  0  0  0  0  0  # atno 496  bound_to 491 

> <Gold.Score>
     Score     S(PLP)   S(hbond)     S(cho)   S(metal)  DE(clash)   DE(tors)     intcor
     57.06     -55.05       1.00       0.00       0.00       0.00       0.50       0.01

> <Gold.PLP.Fitness>
57.0615

> <Gold.PLP.PLP>
-55.0456

> <Gold.PLP.part.hbond>
-1.0000

> <Gold.PLP.part.metal>
0.0000

> <Gold.PLP.part.buried>
-0.8368

> <Gold.PLP.part.nonpolar>
-54.0909

> <Gold.PLP.part.repulsive>
0.0001

> <Gold.PLP.ligand.clash>
0.0000

> <Gold.PLP.ligand.torsion>
0.4951

> <Gold.PLP.Chemscore.Hbond>
1.0000

> <Gold.PLP.Chemscore.CHOScore>
0.0000

> <Gold.PLP.Chemscore.Metal>
0.0000

> <Gold.Chemscore.Hbonds>
donor molecule, donor type, donor heavy atom, donor atom, acceptor molecule, acceptor atom, score
      L1  H    15    39       P1   582  1.00

> <Gold.PLP.Chemscore.Internal.Correction>
0.0061

