#       Name:                EN300-77635_i001
#       Creating user name   aseyller
#       Creation time:       Fri Apr 21 15:46:38 2023


#       File generated by GOLD software.
#

@<TRIPOS>MOLECULE
EN300-77635_i001|amine_1|mol2|995|dock8
    39    40     1
SMALL
USER_CHARGES


@<TRIPOS>ATOM
      1 C1          25.3444  37.4839  41.5052 C.3            1 <1>                0.0000
      2 N2          26.1461  36.2674  41.6936 N.4            1 <1>                1.0000
      3 C3          27.5654  36.6288  41.8058 C.3            1 <1>                0.0000
      4 C4          28.4260  35.4980  41.2386 C.3            1 <1>                0.0000
      5 C5          27.9552  35.1598  39.8227 C.3            1 <1>                0.0000
      6 C6          28.3208  36.2852  38.8895 C.2            1 <1>                0.0000
      7 O7          27.4490  36.9282  38.3442 O.2            1 <1>                0.0000
      8 N8          29.6165  36.5772  38.6611 N.am           1 <1>                0.0000
      9 C9          30.6985  35.8160  39.3073 C.3            1 <1>                0.0000
     10 C10         31.4830  35.0938  38.2131 C.3            1 <1>                0.0000
     11 C11         31.8123  36.0315  37.0813 C.ar           1 <1>                0.0000
     12 C12         32.8553  35.6756  36.2337 C.ar           1 <1>                0.0000
     13 C13         33.2048  36.4820  35.1723 C.ar           1 <1>                0.0000
     14 C14         32.5088  37.6607  34.9443 C.ar           1 <1>                0.0000
     15 O15         32.8427  38.4601  33.8972 O.3            1 <1>                0.0000
     16 C16         31.4719  38.0172  35.7897 C.ar           1 <1>                0.0000
     17 C17         31.1270  37.2055  36.8609 C.ar           1 <1>                0.0000
     18 C18         30.0056  37.6622  37.7538 C.3            1 <1>                0.0000
     19 H19         25.4842  38.1470  42.3590 H              1 <1>                0.0000
     20 H20         25.6632  37.9918  40.5949 H              1 <1>                0.0000
     21 H21         24.2912  37.2158  41.4220 H              1 <1>                0.0000
     22 H22         27.7528  37.5443  41.2447 H              1 <1>                0.0000
     23 H23         27.8184  36.7870  42.8542 H              1 <1>                0.0000
     24 H24         29.4685  35.8147  41.2090 H              1 <1>                0.0000
     25 H25         28.3319  34.6167  41.8730 H              1 <1>                0.0000
     26 H26         28.4369  34.2404  39.4895 H              1 <1>                0.0000
     27 H27         26.8737  35.0240  39.8221 H              1 <1>                0.0000
     28 H28         31.3580  36.4970  39.8455 H              1 <1>                0.0000
     29 H29         30.2750  35.0880  39.9992 H              1 <1>                0.0000
     30 H30         32.4086  34.7019  38.6348 H              1 <1>                0.0000
     31 H31         30.8856  34.2661  37.8306 H              1 <1>                0.0000
     32 H32         33.3973  34.7581  36.4091 H              1 <1>                0.0000
     33 H33         34.0177  36.1980  34.5206 H              1 <1>                0.0000
     34 H34         30.9281  38.9335  35.6143 H              1 <1>                0.0000
     35 H35         29.1495  37.9490  37.1432 H              1 <1>                0.0000
     36 H36         30.3353  38.5196  38.3406 H              1 <1>                0.0000
     37 H37         25.8510  35.7974  42.5363 H              1 <1>                0.0000
     38 H38         26.0167  35.6537  40.9033 H              1 <1>                0.0000
     39 H39         33.7937  38.5123  33.7298 H              1 <1>                0.0000
@<TRIPOS>BOND
    1    1    2 1     
    2    1   19 1     
    3    1   20 1     
    4    1   21 1     
    5    2    3 1     
    6    2   37 1     
    7    2   38 1     
    8    3    4 1     
    9    3   22 1     
   10    3   23 1     
   11    4    5 1     
   12    4   24 1     
   13    4   25 1     
   14    5    6 1     
   15    5   26 1     
   16    5   27 1     
   17    6    7 2     
   18    6    8 am    
   19    8    9 1     
   20    8   18 1     
   21    9   10 1     
   22    9   28 1     
   23    9   29 1     
   24   10   11 1     
   25   10   30 1     
   26   10   31 1     
   27   11   12 ar    
   28   11   17 ar    
   29   12   13 ar    
   30   12   32 1     
   31   13   14 ar    
   32   13   33 1     
   33   14   15 1     
   34   14   16 ar    
   35   15   39 1     
   36   16   17 ar    
   37   16   34 1     
   38   17   18 1     
   39   18   35 1     
   40   18   36 1     
@<TRIPOS>SUBSTRUCTURE
      1 ****           1
@<TRIPOS>SET
DONOR_HYDROGENS      STATIC     ATOMS    <user>   **** ""
3 37 38 39
ATOM$RED        STATIC     ATOMS    COLORGROUP SYSTEM
3 37 38 39
@<TRIPOS>COMMENT
> <Gold.Version>
2022.2.0

> <Gold.Id.Protein>
1qkm|1qkm_protein|mol2

> <Gold.Protein.RotatedTorsions>
[  496  491  490  487 ] final  106.58 input  -89.99 | X-H torsion

> <Gold.Protein.ActiveResidues>
 MET295  LEU298  THR299  LEU301  ALA302  GLU305  TRP335  MET336  LEU339  MET340 
 GLY342  LEU343  ARG346  PHE356  ILE373  ILE376  PHE377  LEU380  LYS471  GLY472 
 MET473  HIS475  LEU476  LEU477  ASN478  MET479  VAL484  VAL487 

> <Gold.Protein.RotatedAtoms>
   36.9699   32.9486   41.8093 H   0  0  0  0  0  0  0  0  0  0  0  0  # atno 496  bound_to 491 

> <Gold.Score>
     Score     S(PLP)   S(hbond)     S(cho)   S(metal)  DE(clash)   DE(tors)     intcor
     65.33     -56.86       3.00       0.00       0.00       0.02       0.26       0.01

> <Gold.PLP.Fitness>
65.3254

> <Gold.PLP.PLP>
-56.8621

> <Gold.PLP.part.hbond>
-2.0000

> <Gold.PLP.part.metal>
0.0000

> <Gold.PLP.part.buried>
0.4480

> <Gold.PLP.part.nonpolar>
-55.4505

> <Gold.PLP.part.repulsive>
0.0684

> <Gold.PLP.ligand.clash>
0.0246

> <Gold.PLP.ligand.torsion>
0.2592

> <Gold.PLP.Chemscore.Hbond>
3.0000

> <Gold.PLP.Chemscore.CHOScore>
0.0000

> <Gold.PLP.Chemscore.Metal>
0.0000

> <Gold.Chemscore.Hbonds>
donor molecule, donor type, donor heavy atom, donor atom, acceptor molecule, acceptor atom, score
      L1  H     2    37       P1   582  2.00
      L1  H    15    39       P1  3229  1.00

> <Gold.PLP.Chemscore.Internal.Correction>
0.0062

