#       Name:                EN300-77635_i001
#       Creating user name   aseyller
#       Creation time:       Fri Apr 21 15:46:29 2023


#       File generated by GOLD software.
#

@<TRIPOS>MOLECULE
EN300-77635_i001|amine_1|mol2|995|dock1
    39    40     1
SMALL
USER_CHARGES


@<TRIPOS>ATOM
      1 C1          33.7898  36.4040  35.0101 C.3            1 <1>                0.0000
      2 N2          32.4682  36.7732  34.4857 N.4            1 <1>                1.0000
      3 C3          32.3907  38.2325  34.3367 C.3            1 <1>                0.0000
      4 C4          31.0061  38.7168  34.7721 C.3            1 <1>                0.0000
      5 C5          30.8616  38.5535  36.2865 C.3            1 <1>                0.0000
      6 C6          29.4000  38.5422  36.6532 C.2            1 <1>                0.0000
      7 O7          28.6977  39.4912  36.3758 O.2            1 <1>                0.0000
      8 N8          28.8731  37.4772  37.2894 N.am           1 <1>                0.0000
      9 C9          29.6983  36.3095  37.6403 C.3            1 <1>                0.0000
     10 C10         29.7427  36.2065  39.1640 C.3            1 <1>                0.0000
     11 C11         28.3621  36.3397  39.7511 C.ar           1 <1>                0.0000
     12 C12         28.1609  35.8551  41.0386 C.ar           1 <1>                0.0000
     13 C13         26.9254  35.9522  41.6410 C.ar           1 <1>                0.0000
     14 C14         25.8705  36.5410  40.9584 C.ar           1 <1>                0.0000
     15 O15         24.6495  36.6459  41.5460 O.3            1 <1>                0.0000
     16 C16         26.0693  37.0212  39.6751 C.ar           1 <1>                0.0000
     17 C17         27.3133  36.9160  39.0696 C.ar           1 <1>                0.0000
     18 C18         27.4558  37.4376  37.6656 C.3            1 <1>                0.0000
     19 H19         34.5621  36.7402  34.3182 H              1 <1>                0.0000
     20 H20         33.9407  36.8769  35.9805 H              1 <1>                0.0000
     21 H21         33.8474  35.3212  35.1206 H              1 <1>                0.0000
     22 H22         33.1522  38.7023  34.9592 H              1 <1>                0.0000
     23 H23         32.5579  38.5007  33.2935 H              1 <1>                0.0000
     24 H24         30.8889  39.7675  34.5071 H              1 <1>                0.0000
     25 H25         30.2401  38.1274  34.2683 H              1 <1>                0.0000
     26 H26         31.3213  37.6150  36.5963 H              1 <1>                0.0000
     27 H27         31.3561  39.3840  36.7903 H              1 <1>                0.0000
     28 H28         29.2549  35.4056  37.2224 H              1 <1>                0.0000
     29 H29         30.7075  36.4403  37.2498 H              1 <1>                0.0000
     30 H30         30.1605  35.2401  39.4460 H              1 <1>                0.0000
     31 H31         30.3780  36.9997  39.5584 H              1 <1>                0.0000
     32 H32         28.9812  35.3976  41.5717 H              1 <1>                0.0000
     33 H33         26.7785  35.5711  42.6407 H              1 <1>                0.0000
     34 H34         25.2504  37.4804  39.1416 H              1 <1>                0.0000
     35 H35         27.0369  38.4421  37.6075 H              1 <1>                0.0000
     36 H36         26.9207  36.7818  36.9789 H              1 <1>                0.0000
     37 H37         32.3286  36.3355  33.5874 H              1 <1>                0.0000
     38 H38         31.7533  36.4621  35.1262 H              1 <1>                0.0000
     39 H39         23.9178  36.3482  40.9884 H              1 <1>                0.0000
@<TRIPOS>BOND
    1    1    2 1     
    2    1   19 1     
    3    1   20 1     
    4    1   21 1     
    5    2    3 1     
    6    2   37 1     
    7    2   38 1     
    8    3    4 1     
    9    3   22 1     
   10    3   23 1     
   11    4    5 1     
   12    4   24 1     
   13    4   25 1     
   14    5    6 1     
   15    5   26 1     
   16    5   27 1     
   17    6    7 2     
   18    6    8 am    
   19    8    9 1     
   20    8   18 1     
   21    9   10 1     
   22    9   28 1     
   23    9   29 1     
   24   10   11 1     
   25   10   30 1     
   26   10   31 1     
   27   11   12 ar    
   28   11   17 ar    
   29   12   13 ar    
   30   12   32 1     
   31   13   14 ar    
   32   13   33 1     
   33   14   15 1     
   34   14   16 ar    
   35   15   39 1     
   36   16   17 ar    
   37   16   34 1     
   38   17   18 1     
   39   18   35 1     
   40   18   36 1     
@<TRIPOS>SUBSTRUCTURE
      1 ****           1
@<TRIPOS>SET
DONOR_HYDROGENS      STATIC     ATOMS    <user>   **** ""
3 37 38 39
ATOM$RED        STATIC     ATOMS    COLORGROUP SYSTEM
3 37 38 39
@<TRIPOS>COMMENT
> <Gold.Version>
2022.2.0

> <Gold.Id.Protein>
1qkm|1qkm_protein|mol2

> <Gold.Protein.RotatedTorsions>
[  496  491  490  487 ] final  152.42 input  -89.99 | X-H torsion

> <Gold.Protein.ActiveResidues>
 MET295  LEU298  THR299  LEU301  ALA302  GLU305  TRP335  MET336  LEU339  MET340 
 GLY342  LEU343  ARG346  PHE356  ILE373  ILE376  PHE377  LEU380  LYS471  GLY472 
 MET473  HIS475  LEU476  LEU477  ASN478  MET479  VAL484  VAL487 

> <Gold.Protein.RotatedAtoms>
   37.2723   33.1268   41.1639 H   0  0  0  0  0  0  0  0  0  0  0  0  # atno 496  bound_to 491 

> <Gold.Score>
     Score     S(PLP)   S(hbond)     S(cho)   S(metal)  DE(clash)   DE(tors)     intcor
     68.89     -62.22       2.48       0.00       0.00       0.00       0.40       0.02

> <Gold.PLP.Fitness>
68.8903

> <Gold.PLP.PLP>
-62.2186

> <Gold.PLP.part.hbond>
-2.9983

> <Gold.PLP.part.metal>
0.0000

> <Gold.PLP.part.buried>
-2.5857

> <Gold.PLP.part.nonpolar>
-59.1069

> <Gold.PLP.part.repulsive>
0.0545

> <Gold.PLP.ligand.clash>
0.0000

> <Gold.PLP.ligand.torsion>
0.4026

> <Gold.PLP.Chemscore.Hbond>
2.4841

> <Gold.PLP.Chemscore.CHOScore>
0.0000

> <Gold.PLP.Chemscore.Metal>
0.0000

> <Gold.Chemscore.Hbonds>
donor molecule, donor type, donor heavy atom, donor atom, acceptor molecule, acceptor atom, score
      L1  H     2    37       P1  3187  0.99
      L1  H    15    39       P1  1131  1.00
      P1  H  1258  1270       L1    15  0.49

> <Gold.PLP.Chemscore.Internal.Correction>
0.0248

