#       Name:                EN300-77635_i001
#       Creating user name   aseyller
#       Creation time:       Fri Apr 21 15:46:48 2023


#       File generated by GOLD software.
#

@<TRIPOS>MOLECULE
EN300-77635_i001|amine_1|mol2|995|dock16
    39    40     1
SMALL
USER_CHARGES


@<TRIPOS>ATOM
      1 C1          33.7059  36.3990  34.8996 C.3            1 <1>                0.0000
      2 N2          32.4366  36.8522  34.3152 N.4            1 <1>                1.0000
      3 C3          32.3683  38.3185  34.3696 C.3            1 <1>                0.0000
      4 C4          30.9360  38.7509  34.6898 C.3            1 <1>                0.0000
      5 C5          30.8005  38.9926  36.1945 C.3            1 <1>                0.0000
      6 C6          31.3276  37.7967  36.9448 C.2            1 <1>                0.0000
      7 O7          32.5233  37.6416  37.0757 O.2            1 <1>                0.0000
      8 N8          30.4703  36.8996  37.4706 N.am           1 <1>                0.0000
      9 C9          30.9528  35.7208  38.2091 C.3            1 <1>                0.0000
     10 C10         30.4777  35.8461  39.6558 C.3            1 <1>                0.0000
     11 C11         29.0163  36.2062  39.7112 C.ar           1 <1>                0.0000
     12 C12         28.3337  35.9453  40.8939 C.ar           1 <1>                0.0000
     13 C13         26.9972  36.2575  41.0177 C.ar           1 <1>                0.0000
     14 C14         26.3244  36.8400  39.9529 C.ar           1 <1>                0.0000
     15 O15         25.0076  37.1561  40.0671 O.3            1 <1>                0.0000
     16 C16         27.0027  37.0974  38.7738 C.ar           1 <1>                0.0000
     17 C17         28.3469  36.7760  38.6510 C.ar           1 <1>                0.0000
     18 C18         29.0186  37.0614  37.3354 C.3            1 <1>                0.0000
     19 H19         34.5371  36.8226  34.3360 H              1 <1>                0.0000
     20 H20         33.7658  36.7273  35.9373 H              1 <1>                0.0000
     21 H21         33.7565  35.3109  34.8593 H              1 <1>                0.0000
     22 H22         33.0405  38.6850  35.1454 H              1 <1>                0.0000
     23 H23         32.6658  38.7322  33.4060 H              1 <1>                0.0000
     24 H24         30.7053  39.6704  34.1519 H              1 <1>                0.0000
     25 H25         30.2430  37.9673  34.3838 H              1 <1>                0.0000
     26 H26         31.3725  39.8776  36.4734 H              1 <1>                0.0000
     27 H27         29.7507  39.1448  36.4450 H              1 <1>                0.0000
     28 H28         30.5438  34.8138  37.7639 H              1 <1>                0.0000
     29 H29         32.0420  35.6879  38.1801 H              1 <1>                0.0000
     30 H30         30.6325  34.8962  40.1675 H              1 <1>                0.0000
     31 H31         31.0571  36.6212  40.1575 H              1 <1>                0.0000
     32 H32         28.8561  35.4930  41.7240 H              1 <1>                0.0000
     33 H33         26.4752  36.0492  41.9398 H              1 <1>                0.0000
     34 H34         26.4820  37.5512  37.9437 H              1 <1>                0.0000
     35 H35         28.7946  38.0828  37.0278 H              1 <1>                0.0000
     36 H36         28.6490  36.3669  36.5811 H              1 <1>                0.0000
     37 H37         32.3812  36.5483  33.3547 H              1 <1>                0.0000
     38 H38         31.6671  36.4601  34.8369 H              1 <1>                0.0000
     39 H39         24.6967  37.2222  40.9803 H              1 <1>                0.0000
@<TRIPOS>BOND
    1    1    2 1     
    2    1   19 1     
    3    1   20 1     
    4    1   21 1     
    5    2    3 1     
    6    2   37 1     
    7    2   38 1     
    8    3    4 1     
    9    3   22 1     
   10    3   23 1     
   11    4    5 1     
   12    4   24 1     
   13    4   25 1     
   14    5    6 1     
   15    5   26 1     
   16    5   27 1     
   17    6    7 2     
   18    6    8 am    
   19    8    9 1     
   20    8   18 1     
   21    9   10 1     
   22    9   28 1     
   23    9   29 1     
   24   10   11 1     
   25   10   30 1     
   26   10   31 1     
   27   11   12 ar    
   28   11   17 ar    
   29   12   13 ar    
   30   12   32 1     
   31   13   14 ar    
   32   13   33 1     
   33   14   15 1     
   34   14   16 ar    
   35   15   39 1     
   36   16   17 ar    
   37   16   34 1     
   38   17   18 1     
   39   18   35 1     
   40   18   36 1     
@<TRIPOS>SUBSTRUCTURE
      1 ****           1
@<TRIPOS>SET
DONOR_HYDROGENS      STATIC     ATOMS    <user>   **** ""
3 37 38 39
ATOM$RED        STATIC     ATOMS    COLORGROUP SYSTEM
3 37 38 39
@<TRIPOS>COMMENT
> <Gold.Version>
2022.2.0

> <Gold.Id.Protein>
1qkm|1qkm_protein|mol2

> <Gold.Protein.RotatedTorsions>
[  496  491  490  487 ] final  174.78 input  -89.99 | X-H torsion

> <Gold.Protein.ActiveResidues>
 MET295  LEU298  THR299  LEU301  ALA302  GLU305  TRP335  MET336  LEU339  MET340 
 GLY342  LEU343  ARG346  PHE356  ILE373  ILE376  PHE377  LEU380  LYS471  GLY472 
 MET473  HIS475  LEU476  LEU477  ASN478  MET479  VAL484  VAL487 

> <Gold.Protein.RotatedAtoms>
   37.3185   33.3890   40.9132 H   0  0  0  0  0  0  0  0  0  0  0  0  # atno 496  bound_to 491 

> <Gold.Score>
     Score     S(PLP)   S(hbond)     S(cho)   S(metal)  DE(clash)   DE(tors)     intcor
     58.41     -56.95       1.00       0.00       0.00       0.00       0.78       0.01

> <Gold.PLP.Fitness>
58.4067

> <Gold.PLP.PLP>
-56.9507

> <Gold.PLP.part.hbond>
-2.0000

> <Gold.PLP.part.metal>
0.0000

> <Gold.PLP.part.buried>
-0.3991

> <Gold.PLP.part.nonpolar>
-55.1726

> <Gold.PLP.part.repulsive>
0.0598

> <Gold.PLP.ligand.clash>
0.0000

> <Gold.PLP.ligand.torsion>
0.7751

> <Gold.PLP.Chemscore.Hbond>
1.0000

> <Gold.PLP.Chemscore.CHOScore>
0.0000

> <Gold.PLP.Chemscore.Metal>
0.0000

> <Gold.Chemscore.Hbonds>
donor molecule, donor type, donor heavy atom, donor atom, acceptor molecule, acceptor atom, score
      L1  H     2    37       P1  3187  1.00

> <Gold.PLP.Chemscore.Internal.Correction>
0.0062

