#       Name:                EN300-77635_i001
#       Creating user name   aseyller
#       Creation time:       Fri Apr 21 15:46:44 2023


#       File generated by GOLD software.
#

@<TRIPOS>MOLECULE
EN300-77635_i001|amine_1|mol2|995|dock13
    39    40     1
SMALL
USER_CHARGES


@<TRIPOS>ATOM
      1 C1          32.1752  33.9009  37.7306 C.3            1 <1>                0.0000
      2 N2          32.6970  35.1867  37.2484 N.4            1 <1>                1.0000
      3 C3          32.0726  35.5165  35.9604 C.3            1 <1>                0.0000
      4 C4          32.0529  37.0354  35.7772 C.3            1 <1>                0.0000
      5 C5          31.5817  37.6993  37.0726 C.3            1 <1>                0.0000
      6 C6          30.0766  37.6628  37.1371 C.2            1 <1>                0.0000
      7 O7          29.4213  38.4013  36.4330 O.2            1 <1>                0.0000
      8 N8          29.4586  36.8092  37.9774 N.am           1 <1>                0.0000
      9 C9          30.2249  35.8997  38.8453 C.3            1 <1>                0.0000
     10 C10         29.9488  36.2911  40.2961 C.3            1 <1>                0.0000
     11 C11         28.4718  36.4688  40.5318 C.ar           1 <1>                0.0000
     12 C12         28.0170  36.4013  41.8439 C.ar           1 <1>                0.0000
     13 C13         26.6796  36.5639  42.1334 C.ar           1 <1>                0.0000
     14 C14         25.7762  36.7996  41.1068 C.ar           1 <1>                0.0000
     15 O15         24.4560  36.9664  41.3829 O.3            1 <1>                0.0000
     16 C16         26.2280  36.8641  39.7997 C.ar           1 <1>                0.0000
     17 C17         27.5745  36.6937  39.5116 C.ar           1 <1>                0.0000
     18 C18         27.9957  36.7533  38.0685 C.3            1 <1>                0.0000
     19 H19         31.0950  33.9720  37.8580 H              1 <1>                0.0000
     20 H20         32.4048  33.1205  37.0051 H              1 <1>                0.0000
     21 H21         32.6385  33.6562  38.6864 H              1 <1>                0.0000
     22 H22         32.6443  35.0605  35.1521 H              1 <1>                0.0000
     23 H23         31.0516  35.1352  35.9433 H              1 <1>                0.0000
     24 H24         33.0561  37.3850  35.5337 H              1 <1>                0.0000
     25 H25         31.3712  37.2948  34.9672 H              1 <1>                0.0000
     26 H26         31.9952  37.1632  37.9269 H              1 <1>                0.0000
     27 H27         31.9213  38.7348  37.0945 H              1 <1>                0.0000
     28 H28         29.9070  34.8712  38.6739 H              1 <1>                0.0000
     29 H29         31.2897  35.9973  38.6332 H              1 <1>                0.0000
     30 H30         30.3258  35.5098  40.9561 H              1 <1>                0.0000
     31 H31         30.4625  37.2263  40.5190 H              1 <1>                0.0000
     32 H32         28.7189  36.2191  42.6442 H              1 <1>                0.0000
     33 H33         26.3357  36.5078  43.1556 H              1 <1>                0.0000
     34 H34         25.5274  37.0479  38.9987 H              1 <1>                0.0000
     35 H35         27.5690  37.6415  37.6025 H              1 <1>                0.0000
     36 H36         27.6376  35.8645  37.5491 H              1 <1>                0.0000
     37 H37         32.4844  35.9090  37.9200 H              1 <1>                0.0000
     38 H38         33.6969  35.1209  37.1305 H              1 <1>                0.0000
     39 H39         23.8668  36.6925  40.6667 H              1 <1>                0.0000
@<TRIPOS>BOND
    1    1    2 1     
    2    1   19 1     
    3    1   20 1     
    4    1   21 1     
    5    2    3 1     
    6    2   37 1     
    7    2   38 1     
    8    3    4 1     
    9    3   22 1     
   10    3   23 1     
   11    4    5 1     
   12    4   24 1     
   13    4   25 1     
   14    5    6 1     
   15    5   26 1     
   16    5   27 1     
   17    6    7 2     
   18    6    8 am    
   19    8    9 1     
   20    8   18 1     
   21    9   10 1     
   22    9   28 1     
   23    9   29 1     
   24   10   11 1     
   25   10   30 1     
   26   10   31 1     
   27   11   12 ar    
   28   11   17 ar    
   29   12   13 ar    
   30   12   32 1     
   31   13   14 ar    
   32   13   33 1     
   33   14   15 1     
   34   14   16 ar    
   35   15   39 1     
   36   16   17 ar    
   37   16   34 1     
   38   17   18 1     
   39   18   35 1     
   40   18   36 1     
@<TRIPOS>SUBSTRUCTURE
      1 ****           1
@<TRIPOS>SET
DONOR_HYDROGENS      STATIC     ATOMS    <user>   **** ""
3 37 38 39
ATOM$RED        STATIC     ATOMS    COLORGROUP SYSTEM
3 37 38 39
@<TRIPOS>COMMENT
> <Gold.Version>
2022.2.0

> <Gold.Id.Protein>
1qkm|1qkm_protein|mol2

> <Gold.Protein.RotatedTorsions>
[  496  491  490  487 ] final  -76.99 input  -89.99 | X-H torsion

> <Gold.Protein.ActiveResidues>
 MET295  LEU298  THR299  LEU301  ALA302  GLU305  TRP335  MET336  LEU339  MET340 
 GLY342  LEU343  ARG346  PHE356  ILE373  ILE376  PHE377  LEU380  LYS471  GLY472 
 MET473  HIS475  LEU476  LEU477  ASN478  MET479  VAL484  VAL487 

> <Gold.Protein.RotatedAtoms>
   36.6390   34.7170   41.2454 H   0  0  0  0  0  0  0  0  0  0  0  0  # atno 496  bound_to 491 

> <Gold.Score>
     Score     S(PLP)   S(hbond)     S(cho)   S(metal)  DE(clash)   DE(tors)     intcor
     58.90     -55.18       1.56       0.00       0.00       0.00       0.48       0.01

> <Gold.PLP.Fitness>
58.8968

> <Gold.PLP.PLP>
-55.1772

> <Gold.PLP.part.hbond>
-2.0000

> <Gold.PLP.part.metal>
0.0000

> <Gold.PLP.part.buried>
1.8885

> <Gold.PLP.part.nonpolar>
-56.8934

> <Gold.PLP.part.repulsive>
0.0163

> <Gold.PLP.ligand.clash>
0.0000

> <Gold.PLP.ligand.torsion>
0.4833

> <Gold.PLP.Chemscore.Hbond>
1.5600

> <Gold.PLP.Chemscore.CHOScore>
0.0000

> <Gold.PLP.Chemscore.Metal>
0.0000

> <Gold.Chemscore.Hbonds>
donor molecule, donor type, donor heavy atom, donor atom, acceptor molecule, acceptor atom, score
      L1  H    15    39       P1  1131  1.00
      P1  H  1258  1270       L1    15  0.56

> <Gold.PLP.Chemscore.Internal.Correction>
0.0062

