#       Name:                EN300-77635_i001
#       Creating user name   aseyller
#       Creation time:       Fri Apr 21 15:46:34 2023


#       File generated by GOLD software.
#

@<TRIPOS>MOLECULE
EN300-77635_i001|amine_1|mol2|995|dock5
    39    40     1
SMALL
USER_CHARGES


@<TRIPOS>ATOM
      1 C1          33.8570  36.4001  35.2263 C.3            1 <1>                0.0000
      2 N2          33.5583  37.7665  34.7772 N.4            1 <1>                1.0000
      3 C3          32.3506  37.7542  33.9412 C.3            1 <1>                0.0000
      4 C4          31.4649  38.9470  34.3069 C.3            1 <1>                0.0000
      5 C5          30.2025  38.4477  35.0125 C.3            1 <1>                0.0000
      6 C6          30.5592  37.9553  36.3914 C.2            1 <1>                0.0000
      7 O7          31.5957  37.3517  36.5705 O.2            1 <1>                0.0000
      8 N8          29.7263  38.1858  37.4256 N.am           1 <1>                0.0000
      9 C9          28.4607  38.9152  37.2417 C.3            1 <1>                0.0000
     10 C10         27.3149  37.9539  37.5538 C.3            1 <1>                0.0000
     11 C11         27.5656  37.2221  38.8461 C.ar           1 <1>                0.0000
     12 C12         26.4708  36.6512  39.4851 C.ar           1 <1>                0.0000
     13 C13         26.6285  35.9594  40.6664 C.ar           1 <1>                0.0000
     14 C14         27.8922  35.8283  41.2245 C.ar           1 <1>                0.0000
     15 O15         28.0586  35.1434  42.3866 O.3            1 <1>                0.0000
     16 C16         28.9825  36.3990  40.5903 C.ar           1 <1>                0.0000
     17 C17         28.8187  37.1002  39.4042 C.ar           1 <1>                0.0000
     18 C18         30.0413  37.7146  38.7785 C.3            1 <1>                0.0000
     19 H19         33.0176  36.0166  35.8062 H              1 <1>                0.0000
     20 H20         34.0218  35.7605  34.3591 H              1 <1>                0.0000
     21 H21         34.7532  36.4092  35.8466 H              1 <1>                0.0000
     22 H22         32.6348  37.8213  32.8911 H              1 <1>                0.0000
     23 H23         31.8009  36.8282  34.1104 H              1 <1>                0.0000
     24 H24         32.0122  39.6156  34.9714 H              1 <1>                0.0000
     25 H25         31.1861  39.4840  33.4003 H              1 <1>                0.0000
     26 H26         29.4841  39.2635  35.0925 H              1 <1>                0.0000
     27 H27         29.7636  37.6321  34.4378 H              1 <1>                0.0000
     28 H28         28.4234  39.7664  37.9216 H              1 <1>                0.0000
     29 H29         28.3811  39.2617  36.2113 H              1 <1>                0.0000
     30 H30         26.3858  38.5181  37.6356 H              1 <1>                0.0000
     31 H31         27.2236  37.2301  36.7438 H              1 <1>                0.0000
     32 H32         25.4868  36.7513  39.0515 H              1 <1>                0.0000
     33 H33         25.7717  35.5210  41.1562 H              1 <1>                0.0000
     34 H34         29.9673  36.2982  41.0219 H              1 <1>                0.0000
     35 H35         30.8357  36.9701  38.7276 H              1 <1>                0.0000
     36 H36         30.3736  38.5579  39.3838 H              1 <1>                0.0000
     37 H37         33.4057  38.3585  35.5800 H              1 <1>                0.0000
     38 H38         34.3354  38.1216  34.2404 H              1 <1>                0.0000
     39 H39         27.2301  34.9038  42.8240 H              1 <1>                0.0000
@<TRIPOS>BOND
    1    1    2 1     
    2    1   19 1     
    3    1   20 1     
    4    1   21 1     
    5    2    3 1     
    6    2   37 1     
    7    2   38 1     
    8    3    4 1     
    9    3   22 1     
   10    3   23 1     
   11    4    5 1     
   12    4   24 1     
   13    4   25 1     
   14    5    6 1     
   15    5   26 1     
   16    5   27 1     
   17    6    7 2     
   18    6    8 am    
   19    8    9 1     
   20    8   18 1     
   21    9   10 1     
   22    9   28 1     
   23    9   29 1     
   24   10   11 1     
   25   10   30 1     
   26   10   31 1     
   27   11   12 ar    
   28   11   17 ar    
   29   12   13 ar    
   30   12   32 1     
   31   13   14 ar    
   32   13   33 1     
   33   14   15 1     
   34   14   16 ar    
   35   15   39 1     
   36   16   17 ar    
   37   16   34 1     
   38   17   18 1     
   39   18   35 1     
   40   18   36 1     
@<TRIPOS>SUBSTRUCTURE
      1 ****           1
@<TRIPOS>SET
DONOR_HYDROGENS      STATIC     ATOMS    <user>   **** ""
3 37 38 39
ATOM$RED        STATIC     ATOMS    COLORGROUP SYSTEM
3 37 38 39
@<TRIPOS>COMMENT
> <Gold.Version>
2022.2.0

> <Gold.Id.Protein>
1qkm|1qkm_protein|mol2

> <Gold.Protein.RotatedTorsions>
[  496  491  490  487 ] final -143.44 input  -89.99 | X-H torsion

> <Gold.Protein.ActiveResidues>
 MET295  LEU298  THR299  LEU301  ALA302  GLU305  TRP335  MET336  LEU339  MET340 
 GLY342  LEU343  ARG346  PHE356  ILE373  ILE376  PHE377  LEU380  LYS471  GLY472 
 MET473  HIS475  LEU476  LEU477  ASN478  MET479  VAL484  VAL487 

> <Gold.Protein.RotatedAtoms>
   37.1950   34.0216   40.7206 H   0  0  0  0  0  0  0  0  0  0  0  0  # atno 496  bound_to 491 

> <Gold.Score>
     Score     S(PLP)   S(hbond)     S(cho)   S(metal)  DE(clash)   DE(tors)     intcor
     63.87     -59.83       2.00       0.00       0.00       0.00       0.99       0.02

> <Gold.PLP.Fitness>
63.8698

> <Gold.PLP.PLP>
-59.8324

> <Gold.PLP.part.hbond>
-2.6347

> <Gold.PLP.part.metal>
0.0000

> <Gold.PLP.part.buried>
-3.0284

> <Gold.PLP.part.nonpolar>
-54.7715

> <Gold.PLP.part.repulsive>
0.0550

> <Gold.PLP.ligand.clash>
0.0000

> <Gold.PLP.ligand.torsion>
0.9919

> <Gold.PLP.Chemscore.Hbond>
2.0000

> <Gold.PLP.Chemscore.CHOScore>
0.0000

> <Gold.PLP.Chemscore.Metal>
0.0000

> <Gold.Chemscore.Hbonds>
donor molecule, donor type, donor heavy atom, donor atom, acceptor molecule, acceptor atom, score
      L1  H     2    38       P1  3229  1.00
      L1  H    15    39       P1   582  1.00

> <Gold.PLP.Chemscore.Internal.Correction>
0.0211

