#       Name:                EN300-77635_i001
#       Creating user name   aseyller
#       Creation time:       Fri Apr 21 15:46:46 2023


#       File generated by GOLD software.
#

@<TRIPOS>MOLECULE
EN300-77635_i001|amine_1|mol2|995|dock14
    39    40     1
SMALL
USER_CHARGES


@<TRIPOS>ATOM
      1 C1          33.3643  36.4728  35.1252 C.3            1 <1>                0.0000
      2 N2          33.2464  36.3889  36.5871 N.4            1 <1>                1.0000
      3 C3          33.0530  34.9877  36.9832 C.3            1 <1>                0.0000
      4 C4          32.4380  34.9337  38.3832 C.3            1 <1>                0.0000
      5 C5          30.9137  34.8683  38.2685 C.3            1 <1>                0.0000
      6 C6          30.4050  36.1258  37.6123 C.2            1 <1>                0.0000
      7 O7          30.7351  36.3934  36.4764 O.2            1 <1>                0.0000
      8 N8          29.5829  36.9532  38.2877 N.am           1 <1>                0.0000
      9 C9          29.0684  38.1893  37.6753 C.3            1 <1>                0.0000
     10 C10         27.5511  38.0569  37.5537 C.3            1 <1>                0.0000
     11 C11         26.9505  37.5655  38.8446 C.ar           1 <1>                0.0000
     12 C12         25.5943  37.7919  39.0504 C.ar           1 <1>                0.0000
     13 C13         24.9771  37.3615  40.2048 C.ar           1 <1>                0.0000
     14 C14         25.7143  36.6933  41.1721 C.ar           1 <1>                0.0000
     15 O15         25.1135  36.2604  42.3117 O.3            1 <1>                0.0000
     16 C16         27.0655  36.4701  40.9692 C.ar           1 <1>                0.0000
     17 C17         27.6847  36.9105  39.8081 C.ar           1 <1>                0.0000
     18 C18         29.1600  36.6553  39.6603 C.3            1 <1>                0.0000
     19 H19         34.2178  35.8807  34.7950 H              1 <1>                0.0000
     20 H20         32.4547  36.0872  34.6647 H              1 <1>                0.0000
     21 H21         33.5078  37.5125  34.8313 H              1 <1>                0.0000
     22 H22         32.3853  34.4985  36.2740 H              1 <1>                0.0000
     23 H23         34.0152  34.4756  36.9891 H              1 <1>                0.0000
     24 H24         32.8014  34.0488  38.9057 H              1 <1>                0.0000
     25 H25         32.7226  35.8266  38.9397 H              1 <1>                0.0000
     26 H26         30.6313  34.0045  37.6667 H              1 <1>                0.0000
     27 H27         30.4782  34.7759  39.2634 H              1 <1>                0.0000
     28 H28         29.3146  39.0436  38.3060 H              1 <1>                0.0000
     29 H29         29.5075  38.3214  36.6864 H              1 <1>                0.0000
     30 H30         27.1251  39.0295  37.3073 H              1 <1>                0.0000
     31 H31         27.3156  37.3510  36.7572 H              1 <1>                0.0000
     32 H32         25.0188  38.3108  38.2981 H              1 <1>                0.0000
     33 H33         23.9235  37.5437  40.3564 H              1 <1>                0.0000
     34 H34         27.6417  35.9498  41.7199 H              1 <1>                0.0000
     35 H35         29.3718  35.6103  39.8864 H              1 <1>                0.0000
     36 H36         29.7096  37.2940  40.3516 H              1 <1>                0.0000
     37 H37         34.0884  36.7458  37.0134 H              1 <1>                0.0000
     38 H38         32.4564  36.9370  36.8928 H              1 <1>                0.0000
     39 H39         25.6963  35.7577  42.8971 H              1 <1>                0.0000
@<TRIPOS>BOND
    1    1    2 1     
    2    1   19 1     
    3    1   20 1     
    4    1   21 1     
    5    2    3 1     
    6    2   37 1     
    7    2   38 1     
    8    3    4 1     
    9    3   22 1     
   10    3   23 1     
   11    4    5 1     
   12    4   24 1     
   13    4   25 1     
   14    5    6 1     
   15    5   26 1     
   16    5   27 1     
   17    6    7 2     
   18    6    8 am    
   19    8    9 1     
   20    8   18 1     
   21    9   10 1     
   22    9   28 1     
   23    9   29 1     
   24   10   11 1     
   25   10   30 1     
   26   10   31 1     
   27   11   12 ar    
   28   11   17 ar    
   29   12   13 ar    
   30   12   32 1     
   31   13   14 ar    
   32   13   33 1     
   33   14   15 1     
   34   14   16 ar    
   35   15   39 1     
   36   16   17 ar    
   37   16   34 1     
   38   17   18 1     
   39   18   35 1     
   40   18   36 1     
@<TRIPOS>SUBSTRUCTURE
      1 ****           1
@<TRIPOS>SET
DONOR_HYDROGENS      STATIC     ATOMS    <user>   **** ""
3 37 38 39
ATOM$RED        STATIC     ATOMS    COLORGROUP SYSTEM
3 37 38 39
@<TRIPOS>COMMENT
> <Gold.Version>
2022.2.0

> <Gold.Id.Protein>
1qkm|1qkm_protein|mol2

> <Gold.Protein.RotatedTorsions>
[  496  491  490  487 ] final  -56.95 input  -89.99 | X-H torsion

> <Gold.Protein.ActiveResidues>
 MET295  LEU298  THR299  LEU301  ALA302  GLU305  TRP335  MET336  LEU339  MET340 
 GLY342  LEU343  ARG346  PHE356  ILE373  ILE376  PHE377  LEU380  LYS471  GLY472 
 MET473  HIS475  LEU476  LEU477  ASN478  MET479  VAL484  VAL487 

> <Gold.Protein.RotatedAtoms>
   36.4739   34.7264   41.5288 H   0  0  0  0  0  0  0  0  0  0  0  0  # atno 496  bound_to 491 

> <Gold.Score>
     Score     S(PLP)   S(hbond)     S(cho)   S(metal)  DE(clash)   DE(tors)     intcor
     59.16     -54.83       1.66       0.00       0.00       0.00       0.32       0.01

> <Gold.PLP.Fitness>
59.1626

> <Gold.PLP.PLP>
-54.8262

> <Gold.PLP.part.hbond>
-2.3643

> <Gold.PLP.part.metal>
0.0000

> <Gold.PLP.part.buried>
-1.4031

> <Gold.PLP.part.nonpolar>
-51.3409

> <Gold.PLP.part.repulsive>
0.0080

> <Gold.PLP.ligand.clash>
0.0000

> <Gold.PLP.ligand.torsion>
0.3189

> <Gold.PLP.Chemscore.Hbond>
1.6560

> <Gold.PLP.Chemscore.CHOScore>
0.0000

> <Gold.PLP.Chemscore.Metal>
0.0000

> <Gold.Chemscore.Hbonds>
donor molecule, donor type, donor heavy atom, donor atom, acceptor molecule, acceptor atom, score
      L1  H    15    39       P1   582  1.00
      P1  H  1258  1270       L1    15  0.66

> <Gold.PLP.Chemscore.Internal.Correction>
0.0062

