#       Name:                EN300-77635_i001
#       Creating user name   aseyller
#       Creation time:       Fri Apr 21 15:46:32 2023


#       File generated by GOLD software.
#

@<TRIPOS>MOLECULE
EN300-77635_i001|amine_1|mol2|995|dock3
    39    40     1
SMALL
USER_CHARGES


@<TRIPOS>ATOM
      1 C1          32.0873  38.1974  33.9970 C.3            1 <1>                0.0000
      2 N2          32.1019  36.8024  34.4574 N.4            1 <1>                1.0000
      3 C3          33.3644  36.5312  35.1577 C.3            1 <1>                0.0000
      4 C4          33.0682  35.8740  36.5072 C.3            1 <1>                0.0000
      5 C5          32.7282  36.9536  37.5366 C.3            1 <1>                0.0000
      6 C6          31.3144  37.4277  37.3192 C.2            1 <1>                0.0000
      7 O7          31.1089  38.5153  36.8235 O.2            1 <1>                0.0000
      8 N8          30.2782  36.6429  37.6754 N.am           1 <1>                0.0000
      9 C9          30.4936  35.3175  38.2793 C.3            1 <1>                0.0000
     10 C10         29.9368  35.3534  39.7016 C.3            1 <1>                0.0000
     11 C11         28.5586  35.9606  39.7229 C.ar           1 <1>                0.0000
     12 C12         27.7522  35.6878  40.8221 C.ar           1 <1>                0.0000
     13 C13         26.4833  36.2177  40.9118 C.ar           1 <1>                0.0000
     14 C14         26.0043  37.0336  39.8967 C.ar           1 <1>                0.0000
     15 O15         24.7561  37.5650  39.9785 O.3            1 <1>                0.0000
     16 C16         26.8056  37.3033  38.8004 C.ar           1 <1>                0.0000
     17 C17         28.0804  36.7629  38.7109 C.ar           1 <1>                0.0000
     18 C18         28.8905  37.0774  37.4827 C.3            1 <1>                0.0000
     19 H19         32.1777  38.8640  34.8546 H              1 <1>                0.0000
     20 H20         32.9230  38.3644  33.3173 H              1 <1>                0.0000
     21 H21         31.1505  38.3987  33.4774 H              1 <1>                0.0000
     22 H22         33.9779  35.8619  34.5546 H              1 <1>                0.0000
     23 H23         33.8989  37.4674  35.3191 H              1 <1>                0.0000
     24 H24         32.2234  35.1933  36.4021 H              1 <1>                0.0000
     25 H25         33.9441  35.3173  36.8403 H              1 <1>                0.0000
     26 H26         32.8226  36.5407  38.5410 H              1 <1>                0.0000
     27 H27         33.4143  37.7929  37.4230 H              1 <1>                0.0000
     28 H28         29.9711  34.5579  37.6978 H              1 <1>                0.0000
     29 H29         31.5600  35.0934  38.3063 H              1 <1>                0.0000
     30 H30         29.8869  34.3372  40.0928 H              1 <1>                0.0000
     31 H31         30.5997  35.9469  40.3313 H              1 <1>                0.0000
     32 H32         28.1240  35.0539  41.6136 H              1 <1>                0.0000
     33 H33         25.8638  35.9985  41.7687 H              1 <1>                0.0000
     34 H34         26.4357  37.9385  38.0091 H              1 <1>                0.0000
     35 H35         28.8689  38.1516  37.2992 H              1 <1>                0.0000
     36 H36         28.4668  36.5549  36.6251 H              1 <1>                0.0000
     37 H37         31.3284  36.6479  35.0866 H              1 <1>                0.0000
     38 H38         32.0183  36.1853  33.6636 H              1 <1>                0.0000
     39 H39         24.0938  36.9598  40.3390 H              1 <1>                0.0000
@<TRIPOS>BOND
    1    1    2 1     
    2    1   19 1     
    3    1   20 1     
    4    1   21 1     
    5    2    3 1     
    6    2   37 1     
    7    2   38 1     
    8    3    4 1     
    9    3   22 1     
   10    3   23 1     
   11    4    5 1     
   12    4   24 1     
   13    4   25 1     
   14    5    6 1     
   15    5   26 1     
   16    5   27 1     
   17    6    7 2     
   18    6    8 am    
   19    8    9 1     
   20    8   18 1     
   21    9   10 1     
   22    9   28 1     
   23    9   29 1     
   24   10   11 1     
   25   10   30 1     
   26   10   31 1     
   27   11   12 ar    
   28   11   17 ar    
   29   12   13 ar    
   30   12   32 1     
   31   13   14 ar    
   32   13   33 1     
   33   14   15 1     
   34   14   16 ar    
   35   15   39 1     
   36   16   17 ar    
   37   16   34 1     
   38   17   18 1     
   39   18   35 1     
   40   18   36 1     
@<TRIPOS>SUBSTRUCTURE
      1 ****           1
@<TRIPOS>SET
DONOR_HYDROGENS      STATIC     ATOMS    <user>   **** ""
3 37 38 39
ATOM$RED        STATIC     ATOMS    COLORGROUP SYSTEM
3 37 38 39
@<TRIPOS>COMMENT
> <Gold.Version>
2022.2.0

> <Gold.Id.Protein>
1qkm|1qkm_protein|mol2

> <Gold.Protein.RotatedTorsions>
[  496  491  490  487 ] final -179.91 input  -89.99 | X-H torsion

> <Gold.Protein.ActiveResidues>
 MET295  LEU298  THR299  LEU301  ALA302  GLU305  TRP335  MET336  LEU339  MET340 
 GLY342  LEU343  ARG346  PHE356  ILE373  ILE376  PHE377  LEU380  LYS471  GLY472 
 MET473  HIS475  LEU476  LEU477  ASN478  MET479  VAL484  VAL487 

> <Gold.Protein.RotatedAtoms>
   37.3178   33.4630   40.8666 H   0  0  0  0  0  0  0  0  0  0  0  0  # atno 496  bound_to 491 

> <Gold.Score>
     Score     S(PLP)   S(hbond)     S(cho)   S(metal)  DE(clash)   DE(tors)     intcor
     60.56     -56.51       1.82       0.00       0.00       0.00       0.71       0.02

> <Gold.PLP.Fitness>
60.5633

> <Gold.PLP.PLP>
-56.5055

> <Gold.PLP.part.hbond>
-2.0000

> <Gold.PLP.part.metal>
0.0000

> <Gold.PLP.part.buried>
0.9153

> <Gold.PLP.part.nonpolar>
-55.4377

> <Gold.PLP.part.repulsive>
0.0481

> <Gold.PLP.ligand.clash>
0.0000

> <Gold.PLP.ligand.torsion>
0.7056

> <Gold.PLP.Chemscore.Hbond>
1.8160

> <Gold.PLP.Chemscore.CHOScore>
0.0000

> <Gold.PLP.Chemscore.Metal>
0.0000

> <Gold.Chemscore.Hbonds>
donor molecule, donor type, donor heavy atom, donor atom, acceptor molecule, acceptor atom, score
      L1  H     2    38       P1  3187  1.00
      L1  H    15    39       P1  1131  0.82

> <Gold.PLP.Chemscore.Internal.Correction>
0.0211

