#       Name:                EN300-77635_i001
#       Creating user name   aseyller
#       Creation time:       Fri Apr 21 15:46:33 2023


#       File generated by GOLD software.
#

@<TRIPOS>MOLECULE
EN300-77635_i001|amine_1|mol2|995|dock4
    39    40     1
SMALL
USER_CHARGES


@<TRIPOS>ATOM
      1 C1          32.7119  35.2071  37.1338 C.3            1 <1>                0.0000
      2 N2          32.5286  36.6015  36.7093 N.4            1 <1>                1.0000
      3 C3          31.5304  36.6587  35.6332 C.3            1 <1>                0.0000
      4 C4          31.1987  38.1196  35.3223 C.3            1 <1>                0.0000
      5 C5          30.8126  38.8412  36.6150 C.3            1 <1>                0.0000
      6 C6          29.3449  38.6340  36.8869 C.2            1 <1>                0.0000
      7 O7          28.5294  39.4114  36.4383 O.2            1 <1>                0.0000
      8 N8          28.9386  37.5845  37.6285 N.am           1 <1>                0.0000
      9 C9          29.9030  36.6227  38.1875 C.3            1 <1>                0.0000
     10 C10         29.8342  36.7200  39.7107 C.3            1 <1>                0.0000
     11 C11         28.4051  36.6951  40.1857 C.ar           1 <1>                0.0000
     12 C12         28.1740  36.3488  41.5122 C.ar           1 <1>                0.0000
     13 C13         26.8920  36.3145  42.0165 C.ar           1 <1>                0.0000
     14 C14         25.8197  36.6304  41.1944 C.ar           1 <1>                0.0000
     15 O15         24.5521  36.6044  41.6839 O.3            1 <1>                0.0000
     16 C16         26.0488  36.9726  39.8726 C.ar           1 <1>                0.0000
     17 C17         27.3407  37.0000  39.3669 C.ar           1 <1>                0.0000
     18 C18         27.5182  37.3581  37.9164 C.3            1 <1>                0.0000
     19 H19         31.7637  34.8101  37.4962 H              1 <1>                0.0000
     20 H20         33.0553  34.6119  36.2876 H              1 <1>                0.0000
     21 H21         33.4526  35.1647  37.9323 H              1 <1>                0.0000
     22 H22         31.9310  36.1791  34.7401 H              1 <1>                0.0000
     23 H23         30.6253  36.1399  35.9492 H              1 <1>                0.0000
     24 H24         32.0700  38.6042  34.8819 H              1 <1>                0.0000
     25 H25         30.3660  38.1615  34.6202 H              1 <1>                0.0000
     26 H26         31.3960  38.4395  37.4435 H              1 <1>                0.0000
     27 H27         31.0158  39.9070  36.5108 H              1 <1>                0.0000
     28 H28         29.6427  35.6128  37.8703 H              1 <1>                0.0000
     29 H29         30.9089  36.8690  37.8472 H              1 <1>                0.0000
     30 H30         30.3722  35.8789  40.1482 H              1 <1>                0.0000
     31 H31         30.3026  37.6503  40.0320 H              1 <1>                0.0000
     32 H32         29.0075  36.1037  42.1537 H              1 <1>                0.0000
     33 H33         26.7225  36.0424  43.0477 H              1 <1>                0.0000
     34 H34         25.2164  37.2195  39.2305 H              1 <1>                0.0000
     35 H35         26.9543  38.2642  37.6949 H              1 <1>                0.0000
     36 H36         27.1516  36.5421  37.2938 H              1 <1>                0.0000
     37 H37         32.2107  37.1524  37.4926 H              1 <1>                0.0000
     38 H38         33.4063  36.9691  36.3738 H              1 <1>                0.0000
     39 H39         23.8966  36.2632  41.0603 H              1 <1>                0.0000
@<TRIPOS>BOND
    1    1    2 1     
    2    1   19 1     
    3    1   20 1     
    4    1   21 1     
    5    2    3 1     
    6    2   37 1     
    7    2   38 1     
    8    3    4 1     
    9    3   22 1     
   10    3   23 1     
   11    4    5 1     
   12    4   24 1     
   13    4   25 1     
   14    5    6 1     
   15    5   26 1     
   16    5   27 1     
   17    6    7 2     
   18    6    8 am    
   19    8    9 1     
   20    8   18 1     
   21    9   10 1     
   22    9   28 1     
   23    9   29 1     
   24   10   11 1     
   25   10   30 1     
   26   10   31 1     
   27   11   12 ar    
   28   11   17 ar    
   29   12   13 ar    
   30   12   32 1     
   31   13   14 ar    
   32   13   33 1     
   33   14   15 1     
   34   14   16 ar    
   35   15   39 1     
   36   16   17 ar    
   37   16   34 1     
   38   17   18 1     
   39   18   35 1     
   40   18   36 1     
@<TRIPOS>SUBSTRUCTURE
      1 ****           1
@<TRIPOS>SET
DONOR_HYDROGENS      STATIC     ATOMS    <user>   **** ""
3 37 38 39
ATOM$RED        STATIC     ATOMS    COLORGROUP SYSTEM
3 37 38 39
@<TRIPOS>COMMENT
> <Gold.Version>
2022.2.0

> <Gold.Id.Protein>
1qkm|1qkm_protein|mol2

> <Gold.Protein.RotatedTorsions>
[  496  491  490  487 ] final   36.94 input  -89.99 | X-H torsion

> <Gold.Protein.ActiveResidues>
 MET295  LEU298  THR299  LEU301  ALA302  GLU305  TRP335  MET336  LEU339  MET340 
 GLY342  LEU343  ARG346  PHE356  ILE373  ILE376  PHE377  LEU380  LYS471  GLY472 
 MET473  HIS475  LEU476  LEU477  ASN478  MET479  VAL484  VAL487 

> <Gold.Protein.RotatedAtoms>
   36.3848   33.6479   42.3826 H   0  0  0  0  0  0  0  0  0  0  0  0  # atno 496  bound_to 491 

> <Gold.Score>
     Score     S(PLP)   S(hbond)     S(cho)   S(metal)  DE(clash)   DE(tors)     intcor
     64.60     -60.42       1.75       0.00       0.00       0.00       0.55       0.02

> <Gold.PLP.Fitness>
64.5995

> <Gold.PLP.PLP>
-60.4192

> <Gold.PLP.part.hbond>
-2.1509

> <Gold.PLP.part.metal>
0.0000

> <Gold.PLP.part.buried>
-1.1105

> <Gold.PLP.part.nonpolar>
-57.5690

> <Gold.PLP.part.repulsive>
0.0000

> <Gold.PLP.ligand.clash>
0.0000

> <Gold.PLP.ligand.torsion>
0.5484

> <Gold.PLP.Chemscore.Hbond>
1.7520

> <Gold.PLP.Chemscore.CHOScore>
0.0000

> <Gold.PLP.Chemscore.Metal>
0.0000

> <Gold.Chemscore.Hbonds>
donor molecule, donor type, donor heavy atom, donor atom, acceptor molecule, acceptor atom, score
      L1  H    15    39       P1  1131  1.00
      P1  H  1258  1270       L1    15  0.75

> <Gold.PLP.Chemscore.Internal.Correction>
0.0211

