#       Name:                EN300-77635_i001
#       Creating user name   aseyller
#       Creation time:       Fri Apr 21 15:46:43 2023


#       File generated by GOLD software.
#

@<TRIPOS>MOLECULE
EN300-77635_i001|amine_1|mol2|995|dock12
    39    40     1
SMALL
USER_CHARGES


@<TRIPOS>ATOM
      1 C1          34.8223  36.1748  36.5970 C.3            1 <1>                0.0000
      2 N2          33.4736  35.9347  36.0666 N.4            1 <1>                1.0000
      3 C3          33.1701  36.9314  35.0311 C.3            1 <1>                0.0000
      4 C4          31.7150  37.3839  35.1696 C.3            1 <1>                0.0000
      5 C5          31.4330  37.7558  36.6267 C.3            1 <1>                0.0000
      6 C6          29.9449  37.8641  36.8384 C.2            1 <1>                0.0000
      7 O7          29.3301  38.7929  36.3586 O.2            1 <1>                0.0000
      8 N8          29.2972  36.9289  37.5611 N.am           1 <1>                0.0000
      9 C9          30.0141  35.7892  38.1569 C.3            1 <1>                0.0000
     10 C10         29.9064  35.9091  39.6762 C.3            1 <1>                0.0000
     11 C11         28.4863  36.1890  40.0929 C.ar           1 <1>                0.0000
     12 C12         28.1344  35.9081  41.4082 C.ar           1 <1>                0.0000
     13 C13         26.8549  36.1480  41.8601 C.ar           1 <1>                0.0000
     14 C14         25.9070  36.6771  40.9957 C.ar           1 <1>                0.0000
     15 O15         24.6439  36.9220  41.4334 O.3            1 <1>                0.0000
     16 C16         26.2559  36.9545  39.6849 C.ar           1 <1>                0.0000
     17 C17         27.5437  36.7057  39.2321 C.ar           1 <1>                0.0000
     18 C18         27.8506  37.0087  37.7907 C.3            1 <1>                0.0000
     19 H19         35.5501  36.0932  35.7897 H              1 <1>                0.0000
     20 H20         34.8701  37.1743  37.0295 H              1 <1>                0.0000
     21 H21         35.0476  35.4353  37.3654 H              1 <1>                0.0000
     22 H22         33.8304  37.7905  35.1490 H              1 <1>                0.0000
     23 H23         33.3209  36.4896  34.0461 H              1 <1>                0.0000
     24 H24         31.5423  38.2517  34.5332 H              1 <1>                0.0000
     25 H25         31.0522  36.5734  34.8666 H              1 <1>                0.0000
     26 H26         31.8384  36.9858  37.2832 H              1 <1>                0.0000
     27 H27         31.9031  38.7123  36.8551 H              1 <1>                0.0000
     28 H28         29.5597  34.8547  37.8276 H              1 <1>                0.0000
     29 H29         31.0621  35.8159  37.8582 H              1 <1>                0.0000
     30 H30         30.2371  34.9766  40.1337 H              1 <1>                0.0000
     31 H31         30.5471  36.7221  40.0180 H              1 <1>                0.0000
     32 H32         28.8713  35.4972  42.0825 H              1 <1>                0.0000
     33 H33         26.5907  35.9247  42.8831 H              1 <1>                0.0000
     34 H34         25.5205  37.3669  39.0101 H              1 <1>                0.0000
     35 H35         27.4996  38.0116  37.5482 H              1 <1>                0.0000
     36 H36         27.3455  36.2840  37.1522 H              1 <1>                0.0000
     37 H37         33.4295  35.0097  35.6663 H              1 <1>                0.0000
     38 H38         32.7999  36.0103  36.8139 H              1 <1>                0.0000
     39 H39         23.9524  36.5983  40.8400 H              1 <1>                0.0000
@<TRIPOS>BOND
    1    1    2 1     
    2    1   19 1     
    3    1   20 1     
    4    1   21 1     
    5    2    3 1     
    6    2   37 1     
    7    2   38 1     
    8    3    4 1     
    9    3   22 1     
   10    3   23 1     
   11    4    5 1     
   12    4   24 1     
   13    4   25 1     
   14    5    6 1     
   15    5   26 1     
   16    5   27 1     
   17    6    7 2     
   18    6    8 am    
   19    8    9 1     
   20    8   18 1     
   21    9   10 1     
   22    9   28 1     
   23    9   29 1     
   24   10   11 1     
   25   10   30 1     
   26   10   31 1     
   27   11   12 ar    
   28   11   17 ar    
   29   12   13 ar    
   30   12   32 1     
   31   13   14 ar    
   32   13   33 1     
   33   14   15 1     
   34   14   16 ar    
   35   15   39 1     
   36   16   17 ar    
   37   16   34 1     
   38   17   18 1     
   39   18   35 1     
   40   18   36 1     
@<TRIPOS>SUBSTRUCTURE
      1 ****           1
@<TRIPOS>SET
DONOR_HYDROGENS      STATIC     ATOMS    <user>   **** ""
3 37 38 39
ATOM$RED        STATIC     ATOMS    COLORGROUP SYSTEM
3 37 38 39
@<TRIPOS>COMMENT
> <Gold.Version>
2022.2.0

> <Gold.Id.Protein>
1qkm|1qkm_protein|mol2

> <Gold.Protein.RotatedTorsions>
[  496  491  490  487 ] final    2.94 input  -89.99 | X-H torsion

> <Gold.Protein.ActiveResidues>
 MET295  LEU298  THR299  LEU301  ALA302  GLU305  TRP335  MET336  LEU339  MET340 
 GLY342  LEU343  ARG346  PHE356  ILE373  ILE376  PHE377  LEU380  LYS471  GLY472 
 MET473  HIS475  LEU476  LEU477  ASN478  MET479  VAL484  VAL487 

> <Gold.Protein.RotatedAtoms>
   36.2620   34.1712   42.2594 H   0  0  0  0  0  0  0  0  0  0  0  0  # atno 496  bound_to 491 

> <Gold.Score>
     Score     S(PLP)   S(hbond)     S(cho)   S(metal)  DE(clash)   DE(tors)     intcor
     56.69     -53.24       1.46       0.00       0.00       0.00       0.47       0.01

> <Gold.PLP.Fitness>
56.6852

> <Gold.PLP.PLP>
-53.2355

> <Gold.PLP.part.hbond>
-2.0000

> <Gold.PLP.part.metal>
0.0000

> <Gold.PLP.part.buried>
-0.5303

> <Gold.PLP.part.nonpolar>
-52.2674

> <Gold.PLP.part.repulsive>
0.0232

> <Gold.PLP.ligand.clash>
0.0000

> <Gold.PLP.ligand.torsion>
0.4719

> <Gold.PLP.Chemscore.Hbond>
1.4624

> <Gold.PLP.Chemscore.CHOScore>
0.0000

> <Gold.PLP.Chemscore.Metal>
0.0000

> <Gold.Chemscore.Hbonds>
donor molecule, donor type, donor heavy atom, donor atom, acceptor molecule, acceptor atom, score
      L1  H    15    39       P1  1131  1.00
      P1  H  1258  1270       L1    15  0.46

> <Gold.PLP.Chemscore.Internal.Correction>
0.0062

