#       Name:                EN300-77635_i001
#       Creating user name   aseyller
#       Creation time:       Fri Apr 21 15:46:39 2023


#       File generated by GOLD software.
#

@<TRIPOS>MOLECULE
EN300-77635_i001|amine_1|mol2|995|dock9
    39    40     1
SMALL
USER_CHARGES


@<TRIPOS>ATOM
      1 C1          31.9247  33.4685  38.2045 C.3            1 <1>                0.0000
      2 N2          32.0825  34.9047  37.9389 N.4            1 <1>                1.0000
      3 C3          32.6790  35.0942  36.6100 C.3            1 <1>                0.0000
      4 C4          31.8498  36.1076  35.8185 C.3            1 <1>                0.0000
      5 C5          31.9274  37.4745  36.5015 C.3            1 <1>                0.0000
      6 C6          30.6572  38.2411  36.2369 C.2            1 <1>                0.0000
      7 O7          30.4351  38.6830  35.1296 O.2            1 <1>                0.0000
      8 N8          29.7680  38.4354  37.2309 N.am           1 <1>                0.0000
      9 C9          28.5178  39.1797  37.0053 C.3            1 <1>                0.0000
     10 C10         27.3523  38.2140  37.2133 C.3            1 <1>                0.0000
     11 C11         27.5264  37.4297  38.4873 C.ar           1 <1>                0.0000
     12 C12         26.3948  36.8407  39.0401 C.ar           1 <1>                0.0000
     13 C13         26.4825  36.1013  40.1996 C.ar           1 <1>                0.0000
     14 C14         27.7119  35.9400  40.8224 C.ar           1 <1>                0.0000
     15 O15         27.8094  35.2084  41.9636 O.3            1 <1>                0.0000
     16 C16         28.8388  36.5287  40.2742 C.ar           1 <1>                0.0000
     17 C17         28.7453  37.2776  39.1099 C.ar           1 <1>                0.0000
     18 C18         30.0039  37.9086  38.5794 C.3            1 <1>                0.0000
     19 H19         31.2747  33.0284  37.4483 H              1 <1>                0.0000
     20 H20         32.9004  32.9836  38.1717 H              1 <1>                0.0000
     21 H21         31.4821  33.3279  39.1906 H              1 <1>                0.0000
     22 H22         33.6983  35.4646  36.7187 H              1 <1>                0.0000
     23 H23         32.6930  34.1424  36.0788 H              1 <1>                0.0000
     24 H24         32.2421  36.1852  34.8046 H              1 <1>                0.0000
     25 H25         30.8115  35.7781  35.7821 H              1 <1>                0.0000
     26 H26         32.0521  37.3375  37.5756 H              1 <1>                0.0000
     27 H27         32.7768  38.0310  36.1052 H              1 <1>                0.0000
     28 H28         28.4456  40.0033  37.7156 H              1 <1>                0.0000
     29 H29         28.4982  39.5675  35.9868 H              1 <1>                0.0000
     30 H30         26.4224  38.7804  37.2652 H              1 <1>                0.0000
     31 H31         27.3041  37.5237  36.3711 H              1 <1>                0.0000
     32 H32         25.4373  36.9643  38.5559 H              1 <1>                0.0000
     33 H33         25.5975  35.6493  40.6223 H              1 <1>                0.0000
     34 H34         29.7971  36.4044  40.7563 H              1 <1>                0.0000
     35 H35         30.7969  37.1617  38.5435 H              1 <1>                0.0000
     36 H36         30.3049  38.7250  39.2358 H              1 <1>                0.0000
     37 H37         31.1793  35.3534  37.9692 H              1 <1>                0.0000
     38 H38         32.6842  35.3121  38.6388 H              1 <1>                0.0000
     39 H39         26.9745  35.1125  42.4418 H              1 <1>                0.0000
@<TRIPOS>BOND
    1    1    2 1     
    2    1   19 1     
    3    1   20 1     
    4    1   21 1     
    5    2    3 1     
    6    2   37 1     
    7    2   38 1     
    8    3    4 1     
    9    3   22 1     
   10    3   23 1     
   11    4    5 1     
   12    4   24 1     
   13    4   25 1     
   14    5    6 1     
   15    5   26 1     
   16    5   27 1     
   17    6    7 2     
   18    6    8 am    
   19    8    9 1     
   20    8   18 1     
   21    9   10 1     
   22    9   28 1     
   23    9   29 1     
   24   10   11 1     
   25   10   30 1     
   26   10   31 1     
   27   11   12 ar    
   28   11   17 ar    
   29   12   13 ar    
   30   12   32 1     
   31   13   14 ar    
   32   13   33 1     
   33   14   15 1     
   34   14   16 ar    
   35   15   39 1     
   36   16   17 ar    
   37   16   34 1     
   38   17   18 1     
   39   18   35 1     
   40   18   36 1     
@<TRIPOS>SUBSTRUCTURE
      1 ****           1
@<TRIPOS>SET
DONOR_HYDROGENS      STATIC     ATOMS    <user>   **** ""
3 37 38 39
ATOM$RED        STATIC     ATOMS    COLORGROUP SYSTEM
3 37 38 39
@<TRIPOS>COMMENT
> <Gold.Version>
2022.2.0

> <Gold.Id.Protein>
1qkm|1qkm_protein|mol2

> <Gold.Protein.RotatedTorsions>
[  496  491  490  487 ] final -137.80 input  -89.99 | X-H torsion

> <Gold.Protein.ActiveResidues>
 MET295  LEU298  THR299  LEU301  ALA302  GLU305  TRP335  MET336  LEU339  MET340 
 GLY342  LEU343  ARG346  PHE356  ILE373  ILE376  PHE377  LEU380  LYS471  GLY472 
 MET473  HIS475  LEU476  LEU477  ASN478  MET479  VAL484  VAL487 

> <Gold.Protein.RotatedAtoms>
   37.1596   34.1070   40.7274 H   0  0  0  0  0  0  0  0  0  0  0  0  # atno 496  bound_to 491 

> <Gold.Score>
     Score     S(PLP)   S(hbond)     S(cho)   S(metal)  DE(clash)   DE(tors)     intcor
     60.03     -58.34       1.00       0.00       0.00       0.00       0.66       0.01

> <Gold.PLP.Fitness>
60.0329

> <Gold.PLP.PLP>
-58.3449

> <Gold.PLP.part.hbond>
-1.0000

> <Gold.PLP.part.metal>
0.0000

> <Gold.PLP.part.buried>
-5.1766

> <Gold.PLP.part.nonpolar>
-52.8461

> <Gold.PLP.part.repulsive>
0.0381

> <Gold.PLP.ligand.clash>
0.0000

> <Gold.PLP.ligand.torsion>
0.6591

> <Gold.PLP.Chemscore.Hbond>
1.0000

> <Gold.PLP.Chemscore.CHOScore>
0.0000

> <Gold.PLP.Chemscore.Metal>
0.0000

> <Gold.Chemscore.Hbonds>
donor molecule, donor type, donor heavy atom, donor atom, acceptor molecule, acceptor atom, score
      L1  H    15    39       P1   582  1.00

> <Gold.PLP.Chemscore.Internal.Correction>
0.0062

