#       Name:                EN300-77635_i001
#       Creating user name   aseyller
#       Creation time:       Fri Apr 21 15:46:37 2023


#       File generated by GOLD software.
#

@<TRIPOS>MOLECULE
EN300-77635_i001|amine_1|mol2|995|dock7
    39    40     1
SMALL
USER_CHARGES


@<TRIPOS>ATOM
      1 C1          28.7915  36.7129  42.3354 C.3            1 <1>                0.0000
      2 N2          27.5216  36.0350  42.0427 N.4            1 <1>                1.0000
      3 C3          26.5808  36.9933  41.4473 C.3            1 <1>                0.0000
      4 C4          25.9856  36.3974  40.1700 C.3            1 <1>                0.0000
      5 C5          27.1057  35.8004  39.3157 C.3            1 <1>                0.0000
      6 C6          27.7169  36.8814  38.4620 C.2            1 <1>                0.0000
      7 O7          27.0029  37.6452  37.8475 O.2            1 <1>                0.0000
      8 N8          29.0571  36.9996  38.3816 N.am           1 <1>                0.0000
      9 C9          29.9515  36.0887  39.1150 C.3            1 <1>                0.0000
     10 C10         30.7483  35.2853  38.0883 C.3            1 <1>                0.0000
     11 C11         31.3207  36.1886  37.0276 C.ar           1 <1>                0.0000
     12 C12         32.3937  35.7092  36.2849 C.ar           1 <1>                0.0000
     13 C13         32.9610  36.4785  35.2922 C.ar           1 <1>                0.0000
     14 C14         32.4563  37.7440  35.0283 C.ar           1 <1>                0.0000
     15 O15         33.0057  38.5082  34.0479 O.3            1 <1>                0.0000
     16 C16         31.3896  38.2232  35.7695 C.ar           1 <1>                0.0000
     17 C17         30.8252  37.4479  36.7723 C.ar           1 <1>                0.0000
     18 C18         29.6833  38.0370  37.5549 C.3            1 <1>                0.0000
     19 H19         29.2129  37.1097  41.4118 H              1 <1>                0.0000
     20 H20         28.6144  37.5303  43.0345 H              1 <1>                0.0000
     21 H21         29.4896  36.0018  42.7772 H              1 <1>                0.0000
     22 H22         25.7807  37.2054  42.1564 H              1 <1>                0.0000
     23 H23         27.1070  37.9171  41.2063 H              1 <1>                0.0000
     24 H24         25.2724  35.6158  40.4319 H              1 <1>                0.0000
     25 H25         25.4768  37.1797  39.6069 H              1 <1>                0.0000
     26 H26         27.8704  35.3743  39.9652 H              1 <1>                0.0000
     27 H27         26.6969  35.0191  38.6749 H              1 <1>                0.0000
     28 H28         30.6324  36.6653  39.7411 H              1 <1>                0.0000
     29 H29         29.3621  35.4131  39.7351 H              1 <1>                0.0000
     30 H30         31.5621  34.7651  38.5936 H              1 <1>                0.0000
     31 H31         30.0920  34.5524  37.6191 H              1 <1>                0.0000
     32 H32         32.7870  34.7241  36.4882 H              1 <1>                0.0000
     33 H33         33.7954  36.0982  34.7220 H              1 <1>                0.0000
     34 H34         30.9944  39.2073  35.5660 H              1 <1>                0.0000
     35 H35         28.9447  38.4468  36.8660 H              1 <1>                0.0000
     36 H36         30.0574  38.8321  38.1997 H              1 <1>                0.0000
     37 H37         27.6856  35.2785  41.3955 H              1 <1>                0.0000
     38 H38         27.1315  35.6677  42.8976 H              1 <1>                0.0000
     39 H39         33.9142  38.2655  33.8226 H              1 <1>                0.0000
@<TRIPOS>BOND
    1    1    2 1     
    2    1   19 1     
    3    1   20 1     
    4    1   21 1     
    5    2    3 1     
    6    2   37 1     
    7    2   38 1     
    8    3    4 1     
    9    3   22 1     
   10    3   23 1     
   11    4    5 1     
   12    4   24 1     
   13    4   25 1     
   14    5    6 1     
   15    5   26 1     
   16    5   27 1     
   17    6    7 2     
   18    6    8 am    
   19    8    9 1     
   20    8   18 1     
   21    9   10 1     
   22    9   28 1     
   23    9   29 1     
   24   10   11 1     
   25   10   30 1     
   26   10   31 1     
   27   11   12 ar    
   28   11   17 ar    
   29   12   13 ar    
   30   12   32 1     
   31   13   14 ar    
   32   13   33 1     
   33   14   15 1     
   34   14   16 ar    
   35   15   39 1     
   36   16   17 ar    
   37   16   34 1     
   38   17   18 1     
   39   18   35 1     
   40   18   36 1     
@<TRIPOS>SUBSTRUCTURE
      1 ****           1
@<TRIPOS>SET
DONOR_HYDROGENS      STATIC     ATOMS    <user>   **** ""
3 37 38 39
ATOM$RED        STATIC     ATOMS    COLORGROUP SYSTEM
3 37 38 39
@<TRIPOS>COMMENT
> <Gold.Version>
2022.2.0

> <Gold.Id.Protein>
1qkm|1qkm_protein|mol2

> <Gold.Protein.RotatedTorsions>
[  496  491  490  487 ] final  -84.35 input  -89.99 | X-H torsion

> <Gold.Protein.ActiveResidues>
 MET295  LEU298  THR299  LEU301  ALA302  GLU305  TRP335  MET336  LEU339  MET340 
 GLY342  LEU343  ARG346  PHE356  ILE373  ILE376  PHE377  LEU380  LYS471  GLY472 
 MET473  HIS475  LEU476  LEU477  ASN478  MET479  VAL484  VAL487 

> <Gold.Protein.RotatedAtoms>
   36.7054   34.6864   41.1489 H   0  0  0  0  0  0  0  0  0  0  0  0  # atno 496  bound_to 491 

> <Gold.Score>
     Score     S(PLP)   S(hbond)     S(cho)   S(metal)  DE(clash)   DE(tors)     intcor
     63.33     -55.72       2.99       0.00       0.00       0.00       0.69       0.01

> <Gold.PLP.Fitness>
63.3251

> <Gold.PLP.PLP>
-55.7211

> <Gold.PLP.part.hbond>
-2.0000

> <Gold.PLP.part.metal>
0.0000

> <Gold.PLP.part.buried>
-3.1551

> <Gold.PLP.part.nonpolar>
-50.7079

> <Gold.PLP.part.repulsive>
0.0517

> <Gold.PLP.ligand.clash>
0.0000

> <Gold.PLP.ligand.torsion>
0.6891

> <Gold.PLP.Chemscore.Hbond>
2.9920

> <Gold.PLP.Chemscore.CHOScore>
0.0000

> <Gold.PLP.Chemscore.Metal>
0.0000

> <Gold.Chemscore.Hbonds>
donor molecule, donor type, donor heavy atom, donor atom, acceptor molecule, acceptor atom, score
      L1  H     2    38       P1   582  2.00
      L1  H    15    39       P1  3229  0.99

> <Gold.PLP.Chemscore.Internal.Correction>
0.0062

