#       Name:                EN300-77635_i001
#       Creating user name   aseyller
#       Creation time:       Fri Apr 21 15:46:41 2023


#       File generated by GOLD software.
#

@<TRIPOS>MOLECULE
EN300-77635_i001|amine_1|mol2|995|dock10
    39    40     1
SMALL
USER_CHARGES


@<TRIPOS>ATOM
      1 C1          33.3566  36.6823  34.9826 C.3            1 <1>                0.0000
      2 N2          31.9409  36.7143  34.5919 N.4            1 <1>                1.0000
      3 C3          31.4662  38.1045  34.5849 C.3            1 <1>                0.0000
      4 C4          29.9656  38.1325  34.8823 C.3            1 <1>                0.0000
      5 C5          29.7423  38.5334  36.3419 C.3            1 <1>                0.0000
      6 C6          30.4232  37.5385  37.2459 C.2            1 <1>                0.0000
      7 O7          31.6337  37.4667  37.2661 O.2            1 <1>                0.0000
      8 N8          29.6869  36.7284  38.0322 N.am           1 <1>                0.0000
      9 C9          30.3212  35.7458  38.9265 C.3            1 <1>                0.0000
     10 C10         29.9916  36.1391  40.3656 C.3            1 <1>                0.0000
     11 C11         28.5230  36.4371  40.5172 C.ar           1 <1>                0.0000
     12 C12         27.9858  36.3900  41.7986 C.ar           1 <1>                0.0000
     13 C13         26.6515  36.6606  42.0118 C.ar           1 <1>                0.0000
     14 C14         25.8344  36.9854  40.9383 C.ar           1 <1>                0.0000
     15 O15         24.5184  37.2588  41.1391 O.3            1 <1>                0.0000
     16 C16         26.3680  37.0297  39.6615 C.ar           1 <1>                0.0000
     17 C17         27.7107  36.7506  39.4502 C.ar           1 <1>                0.0000
     18 C18         28.2216  36.7944  38.0358 C.3            1 <1>                0.0000
     19 H19         33.9432  37.2630  34.2708 H              1 <1>                0.0000
     20 H20         33.4682  37.1094  35.9793 H              1 <1>                0.0000
     21 H21         33.7089  35.6508  34.9878 H              1 <1>                0.0000
     22 H22         31.9983  38.6739  35.3469 H              1 <1>                0.0000
     23 H23         31.6508  38.5466  33.6058 H              1 <1>                0.0000
     24 H24         29.4791  38.8560  34.2282 H              1 <1>                0.0000
     25 H25         29.5423  37.1433  34.7084 H              1 <1>                0.0000
     26 H26         30.1594  39.5257  36.5140 H              1 <1>                0.0000
     27 H27         28.6736  38.5466  36.5556 H              1 <1>                0.0000
     28 H28         29.9298  34.7502  38.7174 H              1 <1>                0.0000
     29 H29         31.4013  35.7565  38.7794 H              1 <1>                0.0000
     30 H30         30.2618  35.3199  41.0320 H              1 <1>                0.0000
     31 H31         30.5668  37.0247  40.6359 H              1 <1>                0.0000
     32 H32         28.6206  36.1385  42.6354 H              1 <1>                0.0000
     33 H33         26.2432  36.6195  43.0107 H              1 <1>                0.0000
     34 H34         25.7347  37.2828  38.8242 H              1 <1>                0.0000
     35 H35         27.8991  37.7217  37.5622 H              1 <1>                0.0000
     36 H36         27.8229  35.9461  37.4796 H              1 <1>                0.0000
     37 H37         31.8377  36.3191  33.6693 H              1 <1>                0.0000
     38 H38         31.3978  36.1768  35.2508 H              1 <1>                0.0000
     39 H39         23.9221  36.7757  40.5508 H              1 <1>                0.0000
@<TRIPOS>BOND
    1    1    2 1     
    2    1   19 1     
    3    1   20 1     
    4    1   21 1     
    5    2    3 1     
    6    2   37 1     
    7    2   38 1     
    8    3    4 1     
    9    3   22 1     
   10    3   23 1     
   11    4    5 1     
   12    4   24 1     
   13    4   25 1     
   14    5    6 1     
   15    5   26 1     
   16    5   27 1     
   17    6    7 2     
   18    6    8 am    
   19    8    9 1     
   20    8   18 1     
   21    9   10 1     
   22    9   28 1     
   23    9   29 1     
   24   10   11 1     
   25   10   30 1     
   26   10   31 1     
   27   11   12 ar    
   28   11   17 ar    
   29   12   13 ar    
   30   12   32 1     
   31   13   14 ar    
   32   13   33 1     
   33   14   15 1     
   34   14   16 ar    
   35   15   39 1     
   36   16   17 ar    
   37   16   34 1     
   38   17   18 1     
   39   18   35 1     
   40   18   36 1     
@<TRIPOS>SUBSTRUCTURE
      1 ****           1
@<TRIPOS>SET
DONOR_HYDROGENS      STATIC     ATOMS    <user>   **** ""
3 37 38 39
ATOM$RED        STATIC     ATOMS    COLORGROUP SYSTEM
3 37 38 39
@<TRIPOS>COMMENT
> <Gold.Version>
2022.2.0

> <Gold.Id.Protein>
1qkm|1qkm_protein|mol2

> <Gold.Protein.RotatedTorsions>
[  496  491  490  487 ] final  174.79 input  -89.99 | X-H torsion

> <Gold.Protein.ActiveResidues>
 MET295  LEU298  THR299  LEU301  ALA302  GLU305  TRP335  MET336  LEU339  MET340 
 GLY342  LEU343  ARG346  PHE356  ILE373  ILE376  PHE377  LEU380  LYS471  GLY472 
 MET473  HIS475  LEU476  LEU477  ASN478  MET479  VAL484  VAL487 

> <Gold.Protein.RotatedAtoms>
   37.3185   33.3891   40.9132 H   0  0  0  0  0  0  0  0  0  0  0  0  # atno 496  bound_to 491 

> <Gold.Score>
     Score     S(PLP)   S(hbond)     S(cho)   S(metal)  DE(clash)   DE(tors)     intcor
     62.77     -56.90       2.30       0.00       0.00       0.00       0.52       0.01

> <Gold.PLP.Fitness>
62.7662

> <Gold.PLP.PLP>
-56.9049

> <Gold.PLP.part.hbond>
-2.9906

> <Gold.PLP.part.metal>
0.0000

> <Gold.PLP.part.buried>
3.5053

> <Gold.PLP.part.nonpolar>
-58.2645

> <Gold.PLP.part.repulsive>
0.0400

> <Gold.PLP.ligand.clash>
0.0000

> <Gold.PLP.ligand.torsion>
0.5225

> <Gold.PLP.Chemscore.Hbond>
2.3000

> <Gold.PLP.Chemscore.CHOScore>
0.0000

> <Gold.PLP.Chemscore.Metal>
0.0000

> <Gold.Chemscore.Hbonds>
donor molecule, donor type, donor heavy atom, donor atom, acceptor molecule, acceptor atom, score
      L1  H     2    37       P1  3187  0.98
      L1  H    15    39       P1  1131  1.00
      P1  H  1258  1270       L1    15  0.32

> <Gold.PLP.Chemscore.Internal.Correction>
0.0062

