#       Name:                EN300-77635_i001
#       Creating user name   aseyller
#       Creation time:       Fri Apr 21 15:46:52 2023


#       File generated by GOLD software.
#

@<TRIPOS>MOLECULE
EN300-77635_i001|amine_1|mol2|995|dock19
    39    40     1
SMALL
USER_CHARGES


@<TRIPOS>ATOM
      1 C1          31.2577  38.2084  34.2460 C.3            1 <1>                0.0000
      2 N2          31.7031  36.8350  34.5172 N.4            1 <1>                1.0000
      3 C3          32.8658  36.8655  35.4144 C.3            1 <1>                0.0000
      4 C4          32.6583  35.8639  36.5523 C.3            1 <1>                0.0000
      5 C5          32.1177  36.5947  37.7829 C.3            1 <1>                0.0000
      6 C6          30.6441  36.8556  37.6051 C.2            1 <1>                0.0000
      7 O7          30.2650  37.6463  36.7673 O.2            1 <1>                0.0000
      8 N8          29.7476  36.2101  38.3771 N.am           1 <1>                0.0000
      9 C9          30.1750  35.2443  39.4029 C.3            1 <1>                0.0000
     10 C10         29.7728  35.8003  40.7680 C.3            1 <1>                0.0000
     11 C11         28.3449  36.2793  40.7525 C.ar           1 <1>                0.0000
     12 C12         27.6967  36.4097  41.9755 C.ar           1 <1>                0.0000
     13 C13         26.3928  36.8514  42.0364 C.ar           1 <1>                0.0000
     14 C14         25.7187  37.1718  40.8665 C.ar           1 <1>                0.0000
     15 O15         24.4343  37.6131  40.9166 O.3            1 <1>                0.0000
     16 C16         26.3626  37.0394  39.6480 C.ar           1 <1>                0.0000
     17 C17         27.6736  36.5885  39.5905 C.ar           1 <1>                0.0000
     18 C18         28.3070  36.4461  38.2333 C.3            1 <1>                0.0000
     19 H19         30.9812  38.6923  35.1828 H              1 <1>                0.0000
     20 H20         32.0665  38.7661  33.7739 H              1 <1>                0.0000
     21 H21         30.3950  38.1858  33.5803 H              1 <1>                0.0000
     22 H22         33.7631  36.5998  34.8556 H              1 <1>                0.0000
     23 H23         32.9790  37.8675  35.8286 H              1 <1>                0.0000
     24 H24         31.9447  35.1016  36.2397 H              1 <1>                0.0000
     25 H25         33.6094  35.3919  36.7987 H              1 <1>                0.0000
     26 H26         32.2734  35.9790  38.6688 H              1 <1>                0.0000
     27 H27         32.6426  37.5425  37.9024 H              1 <1>                0.0000
     28 H28         29.6828  34.2863  39.2354 H              1 <1>                0.0000
     29 H29         31.2567  35.1163  39.3610 H              1 <1>                0.0000
     30 H30         29.8804  35.0181  41.5195 H              1 <1>                0.0000
     31 H31         30.4277  36.6336  41.0227 H              1 <1>                0.0000
     32 H32         28.2203  36.1618  42.8871 H              1 <1>                0.0000
     33 H33         25.8972  36.9475  42.9910 H              1 <1>                0.0000
     34 H34         25.8408  37.2886  38.7360 H              1 <1>                0.0000
     35 H35         28.1443  37.3584  37.6596 H              1 <1>                0.0000
     36 H36         27.8560  35.6035  37.7091 H              1 <1>                0.0000
     37 H37         30.9544  36.3188  34.9542 H              1 <1>                0.0000
     38 H38         31.9591  36.3871  33.6501 H              1 <1>                0.0000
     39 H39         23.8413  37.1688  40.2954 H              1 <1>                0.0000
@<TRIPOS>BOND
    1    1    2 1     
    2    1   19 1     
    3    1   20 1     
    4    1   21 1     
    5    2    3 1     
    6    2   37 1     
    7    2   38 1     
    8    3    4 1     
    9    3   22 1     
   10    3   23 1     
   11    4    5 1     
   12    4   24 1     
   13    4   25 1     
   14    5    6 1     
   15    5   26 1     
   16    5   27 1     
   17    6    7 2     
   18    6    8 am    
   19    8    9 1     
   20    8   18 1     
   21    9   10 1     
   22    9   28 1     
   23    9   29 1     
   24   10   11 1     
   25   10   30 1     
   26   10   31 1     
   27   11   12 ar    
   28   11   17 ar    
   29   12   13 ar    
   30   12   32 1     
   31   13   14 ar    
   32   13   33 1     
   33   14   15 1     
   34   14   16 ar    
   35   15   39 1     
   36   16   17 ar    
   37   16   34 1     
   38   17   18 1     
   39   18   35 1     
   40   18   36 1     
@<TRIPOS>SUBSTRUCTURE
      1 ****           1
@<TRIPOS>SET
DONOR_HYDROGENS      STATIC     ATOMS    <user>   **** ""
3 37 38 39
ATOM$RED        STATIC     ATOMS    COLORGROUP SYSTEM
3 37 38 39
@<TRIPOS>COMMENT
> <Gold.Version>
2022.2.0

> <Gold.Id.Protein>
1qkm|1qkm_protein|mol2

> <Gold.Protein.RotatedTorsions>
[  496  491  490  487 ] final  -41.37 input  -89.99 | X-H torsion

> <Gold.Protein.ActiveResidues>
 MET295  LEU298  THR299  LEU301  ALA302  GLU305  TRP335  MET336  LEU339  MET340 
 GLY342  LEU343  ARG346  PHE356  ILE373  ILE376  PHE377  LEU380  LYS471  GLY472 
 MET473  HIS475  LEU476  LEU477  ASN478  MET479  VAL484  VAL487 

> <Gold.Protein.RotatedAtoms>
   36.3709   34.6589   41.7531 H   0  0  0  0  0  0  0  0  0  0  0  0  # atno 496  bound_to 491 

> <Gold.Score>
     Score     S(PLP)   S(hbond)     S(cho)   S(metal)  DE(clash)   DE(tors)     intcor
     56.10     -51.64       1.98       0.00       0.00       0.00       0.74       0.01

> <Gold.PLP.Fitness>
56.1025

> <Gold.PLP.PLP>
-51.6385

> <Gold.PLP.part.hbond>
-2.9732

> <Gold.PLP.part.metal>
0.0000

> <Gold.PLP.part.buried>
8.7325

> <Gold.PLP.part.nonpolar>
-58.4652

> <Gold.PLP.part.repulsive>
0.0373

> <Gold.PLP.ligand.clash>
0.0000

> <Gold.PLP.ligand.torsion>
0.7421

> <Gold.PLP.Chemscore.Hbond>
1.9807

> <Gold.PLP.Chemscore.CHOScore>
0.0000

> <Gold.PLP.Chemscore.Metal>
0.0000

> <Gold.Chemscore.Hbonds>
donor molecule, donor type, donor heavy atom, donor atom, acceptor molecule, acceptor atom, score
      L1  H     2    38       P1  3187  0.91
      L1  H    15    39       P1  1131  1.00
      P1  H  1258  1270       L1    15  0.07

> <Gold.PLP.Chemscore.Internal.Correction>
0.0061

