#       Name:                EN300-77635_i001
#       Creating user name   aseyller
#       Creation time:       Fri Apr 21 15:46:28 2023


#       File generated by GOLD software.
#

@<TRIPOS>MOLECULE
EN300-77635_i001
    39    40     1
SMALL
USER_CHARGES


@<TRIPOS>ATOM
      1 C1           5.8731   1.8556   0.3233 C.3            1 <1>                0.0000
      2 N2           5.0687   0.6301   0.4190 N.4            1 <1>                1.0000
      3 C3           3.6926   0.9129  -0.0101 C.3            1 <1>                0.0000
      4 C4           2.8548  -0.3635   0.0895 C.3            1 <1>                0.0000
      5 C5           1.4215  -0.0690  -0.3574 C.3            1 <1>                0.0000
      6 C6           0.5964  -1.3262  -0.2593 C.2            1 <1>                0.0000
      7 O7           1.1046  -2.3563   0.1298 O.2            1 <1>                0.0000
      8 N8          -0.7064  -1.3058  -0.6039 N.am           1 <1>                0.0000
      9 C9          -1.5399  -2.5165  -0.5195 C.3            1 <1>                0.0000
     10 C10         -2.6235  -2.2686   0.5287 C.3            1 <1>                0.0000
     11 C11         -3.2818  -0.9311   0.3136 C.ar           1 <1>                0.0000
     12 C12         -4.5351  -0.7321   0.8815 C.ar           1 <1>                0.0000
     13 C13         -5.1914   0.4704   0.7325 C.ar           1 <1>                0.0000
     14 C14         -4.5963   1.4951   0.0104 C.ar           1 <1>                0.0000
     15 O15         -5.2334   2.6864  -0.1378 O.3            1 <1>                0.0000
     16 C16         -3.3495   1.2967  -0.5579 C.ar           1 <1>                0.0000
     17 C17         -2.6946   0.0823  -0.4108 C.ar           1 <1>                0.0000
     18 C18         -1.3525  -0.0750  -1.0723 C.3            1 <1>                0.0000
     19 H19          5.8791   2.2066  -0.7086 H              1 <1>                0.0000
     20 H20          5.4427   2.6238   0.9658 H              1 <1>                0.0000
     21 H21          6.8942   1.6458   0.6417 H              1 <1>                0.0000
     22 H22          3.2622   1.6810   0.6324 H              1 <1>                0.0000
     23 H23          3.6986   1.2639  -1.0421 H              1 <1>                0.0000
     24 H24          3.2852  -1.1316  -0.5530 H              1 <1>                0.0000
     25 H25          2.8488  -0.7145   1.1214 H              1 <1>                0.0000
     26 H26          0.9911   0.6992   0.2851 H              1 <1>                0.0000
     27 H27          1.4275   0.2820  -1.3893 H              1 <1>                0.0000
     28 H28         -2.0012  -2.7149  -1.4870 H              1 <1>                0.0000
     29 H29         -0.9262  -3.3667  -0.2216 H              1 <1>                0.0000
     30 H30         -3.3761  -3.0540   0.4589 H              1 <1>                0.0000
     31 H31         -2.1738  -2.2913   1.5214 H              1 <1>                0.0000
     32 H32         -4.9992  -1.5282   1.4448 H              1 <1>                0.0000
     33 H33         -6.1655   0.6147   1.1758 H              1 <1>                0.0000
     34 H34         -2.8836   2.0925  -1.1199 H              1 <1>                0.0000
     35 H35         -0.7242   0.7809  -0.8260 H              1 <1>                0.0000
     36 H36         -1.4847  -0.1281  -2.1529 H              1 <1>                0.0000
     37 H37          5.4671  -0.0809  -0.1758 H              1 <1>                0.0000
     38 H38          5.0631   0.3052   1.3742 H              1 <1>                0.0000
     39 H39         -5.0338   3.3283   0.5573 H              1 <1>                0.0000
@<TRIPOS>BOND
    1    1    2 1     
    2    1   19 1     
    3    1   20 1     
    4    1   21 1     
    5    2    3 1     
    6    2   37 1     
    7    2   38 1     
    8    3    4 1     
    9    3   22 1     
   10    3   23 1     
   11    4    5 1     
   12    4   24 1     
   13    4   25 1     
   14    5    6 1     
   15    5   26 1     
   16    5   27 1     
   17    6    7 2     
   18    6    8 am    
   19    8    9 1     
   20    8   18 1     
   21    9   10 1     
   22    9   28 1     
   23    9   29 1     
   24   10   11 1     
   25   10   30 1     
   26   10   31 1     
   27   11   12 ar    
   28   11   17 ar    
   29   12   13 ar    
   30   12   32 1     
   31   13   14 ar    
   32   13   33 1     
   33   14   15 1     
   34   14   16 ar    
   35   15   39 1     
   36   16   17 ar    
   37   16   34 1     
   38   17   18 1     
   39   18   35 1     
   40   18   36 1     
@<TRIPOS>SUBSTRUCTURE
      1 ****           1
@<TRIPOS>SET
DONOR_HYDROGENS      STATIC     ATOMS    <user>   **** ""
3 37 38 39
ATOM$RED        STATIC     ATOMS    COLORGROUP SYSTEM
3 37 38 39
