#       Name:                EN300-77635_i001
#       Creating user name   aseyller
#       Creation time:       Fri Apr 21 15:46:31 2023


#       File generated by GOLD software.
#

@<TRIPOS>MOLECULE
EN300-77635_i001|amine_1|mol2|995|dock2
    39    40     1
SMALL
USER_CHARGES


@<TRIPOS>ATOM
      1 C1          32.3888  37.9417  34.0562 C.3            1 <1>                0.0000
      2 N2          32.8769  37.8120  35.4357 N.4            1 <1>                1.0000
      3 C3          33.4977  36.4926  35.6134 C.3            1 <1>                0.0000
      4 C4          33.1187  35.9312  36.9853 C.3            1 <1>                0.0000
      5 C5          31.6852  35.3984  36.9401 C.3            1 <1>                0.0000
      6 C6          31.1160  35.3689  38.3351 C.2            1 <1>                0.0000
      7 O7          31.4245  34.4774  39.0972 O.2            1 <1>                0.0000
      8 N8          30.2642  36.3334  38.7359 N.am           1 <1>                0.0000
      9 C9          29.8697  37.4293  37.8353 C.3            1 <1>                0.0000
     10 C10         28.3691  37.3065  37.5753 C.3            1 <1>                0.0000
     11 C11         27.6166  37.1008  38.8637 C.ar           1 <1>                0.0000
     12 C12         26.2573  37.3925  38.8685 C.ar           1 <1>                0.0000
     13 C13         25.5052  37.2191  40.0101 C.ar           1 <1>                0.0000
     14 C14         26.1082  36.7467  41.1671 C.ar           1 <1>                0.0000
     15 O15         25.3739  36.5675  42.2966 O.3            1 <1>                0.0000
     16 C16         27.4625  36.4588  41.1640 C.ar           1 <1>                0.0000
     17 C17         28.2176  36.6406  40.0142 C.ar           1 <1>                0.0000
     18 C18         29.6880  36.3301  40.0849 C.3            1 <1>                0.0000
     19 H19         33.2242  37.8369  33.3639 H              1 <1>                0.0000
     20 H20         31.6520  37.1635  33.8568 H              1 <1>                0.0000
     21 H21         31.9281  38.9207  33.9243 H              1 <1>                0.0000
     22 H22         33.1448  35.8170  34.8342 H              1 <1>                0.0000
     23 H23         34.5815  36.5890  35.5471 H              1 <1>                0.0000
     24 H24         33.7993  35.1211  37.2470 H              1 <1>                0.0000
     25 H25         33.1894  36.7209  37.7332 H              1 <1>                0.0000
     26 H26         31.0755  36.0485  36.3125 H              1 <1>                0.0000
     27 H27         31.6852  34.3900  36.5263 H              1 <1>                0.0000
     28 H28         30.0852  38.3888  38.3056 H              1 <1>                0.0000
     29 H29         30.4148  37.3482  36.8949 H              1 <1>                0.0000
     30 H30         28.0131  38.2171  37.0936 H              1 <1>                0.0000
     31 H31         28.1880  36.4582  36.9151 H              1 <1>                0.0000
     32 H32         25.7861  37.7592  37.9685 H              1 <1>                0.0000
     33 H33         24.4503  37.4503  40.0044 H              1 <1>                0.0000
     34 H34         27.9344  36.0905  42.0628 H              1 <1>                0.0000
     35 H35         29.8301  35.3489  40.5376 H              1 <1>                0.0000
     36 H36         30.1894  37.0846  40.6909 H              1 <1>                0.0000
     37 H37         33.5590  38.5322  35.6201 H              1 <1>                0.0000
     38 H38         32.1036  37.9089  36.0765 H              1 <1>                0.0000
     39 H39         25.8096  36.0236  42.9669 H              1 <1>                0.0000
@<TRIPOS>BOND
    1    1    2 1     
    2    1   19 1     
    3    1   20 1     
    4    1   21 1     
    5    2    3 1     
    6    2   37 1     
    7    2   38 1     
    8    3    4 1     
    9    3   22 1     
   10    3   23 1     
   11    4    5 1     
   12    4   24 1     
   13    4   25 1     
   14    5    6 1     
   15    5   26 1     
   16    5   27 1     
   17    6    7 2     
   18    6    8 am    
   19    8    9 1     
   20    8   18 1     
   21    9   10 1     
   22    9   28 1     
   23    9   29 1     
   24   10   11 1     
   25   10   30 1     
   26   10   31 1     
   27   11   12 ar    
   28   11   17 ar    
   29   12   13 ar    
   30   12   32 1     
   31   13   14 ar    
   32   13   33 1     
   33   14   15 1     
   34   14   16 ar    
   35   15   39 1     
   36   16   17 ar    
   37   16   34 1     
   38   17   18 1     
   39   18   35 1     
   40   18   36 1     
@<TRIPOS>SUBSTRUCTURE
      1 ****           1
@<TRIPOS>SET
DONOR_HYDROGENS      STATIC     ATOMS    <user>   **** ""
3 37 38 39
ATOM$RED        STATIC     ATOMS    COLORGROUP SYSTEM
3 37 38 39
@<TRIPOS>COMMENT
> <Gold.Version>
2022.2.0

> <Gold.Id.Protein>
1qkm|1qkm_protein|mol2

> <Gold.Protein.RotatedTorsions>
[  496  491  490  487 ] final   34.16 input  -89.99 | X-H torsion

> <Gold.Protein.ActiveResidues>
 MET295  LEU298  THR299  LEU301  ALA302  GLU305  TRP335  MET336  LEU339  MET340 
 GLY342  LEU343  ARG346  PHE356  ILE373  ILE376  PHE377  LEU380  LYS471  GLY472 
 MET473  HIS475  LEU476  LEU477  ASN478  MET479  VAL484  VAL487 

> <Gold.Protein.RotatedAtoms>
   36.3686   33.6908   42.3833 H   0  0  0  0  0  0  0  0  0  0  0  0  # atno 496  bound_to 491 

> <Gold.Score>
     Score     S(PLP)   S(hbond)     S(cho)   S(metal)  DE(clash)   DE(tors)     intcor
     67.26     -64.33       1.45       0.00       0.00       0.00       0.72       0.02

> <Gold.PLP.Fitness>
67.2630

> <Gold.PLP.PLP>
-64.3339

> <Gold.PLP.part.hbond>
-2.0000

> <Gold.PLP.part.metal>
0.0000

> <Gold.PLP.part.buried>
-4.7158

> <Gold.PLP.part.nonpolar>
-59.5739

> <Gold.PLP.part.repulsive>
0.5788

> <Gold.PLP.ligand.clash>
0.0000

> <Gold.PLP.ligand.torsion>
0.7180

> <Gold.PLP.Chemscore.Hbond>
1.4480

> <Gold.PLP.Chemscore.CHOScore>
0.0000

> <Gold.PLP.Chemscore.Metal>
0.0000

> <Gold.Chemscore.Hbonds>
donor molecule, donor type, donor heavy atom, donor atom, acceptor molecule, acceptor atom, score
      L1  H    15    39       P1   582  1.00
      P1  H  1258  1270       L1    15  0.45

> <Gold.PLP.Chemscore.Internal.Correction>
0.0211

