#       Name:                EN300-77635_i001
#       Creating user name   aseyller
#       Creation time:       Fri Apr 21 15:46:54 2023


#       File generated by GOLD software.
#

@<TRIPOS>MOLECULE
EN300-77635_i001|amine_1|mol2|995|dock20
    39    40     1
SMALL
USER_CHARGES


@<TRIPOS>ATOM
      1 C1          32.2593  38.1620  33.7156 C.3            1 <1>                0.0000
      2 N2          32.1810  37.0258  34.6435 N.4            1 <1>                1.0000
      3 C3          33.5149  36.7496  35.1931 C.3            1 <1>                0.0000
      4 C4          33.3742  36.0468  36.5448 C.3            1 <1>                0.0000
      5 C5          32.3648  34.9036  36.4227 C.3            1 <1>                0.0000
      6 C6          31.6835  34.6910  37.7500 C.2            1 <1>                0.0000
      7 O7          31.8367  33.6484  38.3502 O.2            1 <1>                0.0000
      8 N8          30.9040  35.6597  38.2701 N.am           1 <1>                0.0000
      9 C9          30.6976  36.9366  37.5669 C.3            1 <1>                0.0000
     10 C10         29.2186  37.0351  37.1965 C.3            1 <1>                0.0000
     11 C11         28.3464  36.6905  38.3751 C.ar           1 <1>                0.0000
     12 C12         27.0279  37.1306  38.3502 C.ar           1 <1>                0.0000
     13 C13         26.1713  36.8436  39.3908 C.ar           1 <1>                0.0000
     14 C14         26.6268  36.1063  40.4746 C.ar           1 <1>                0.0000
     15 O15         25.7883  35.8138  41.5033 O.3            1 <1>                0.0000
     16 C16         27.9406  35.6701  40.5014 C.ar           1 <1>                0.0000
     17 C17         28.8016  35.9665  39.4545 C.ar           1 <1>                0.0000
     18 C18         30.2223  35.4818  39.5567 C.3            1 <1>                0.0000
     19 H19         32.6223  39.0413  34.2477 H              1 <1>                0.0000
     20 H20         32.9443  37.9207  32.9028 H              1 <1>                0.0000
     21 H21         31.2695  38.3670  33.3078 H              1 <1>                0.0000
     22 H22         34.0654  36.1076  34.5054 H              1 <1>                0.0000
     23 H23         34.0547  37.6873  35.3256 H              1 <1>                0.0000
     24 H24         34.3414  35.6467  36.8487 H              1 <1>                0.0000
     25 H25         33.0258  36.7609  37.2910 H              1 <1>                0.0000
     26 H26         31.6197  35.1557  35.6680 H              1 <1>                0.0000
     27 H27         32.8835  33.9906  36.1303 H              1 <1>                0.0000
     28 H28         30.9702  37.7656  38.2201 H              1 <1>                0.0000
     29 H29         31.3067  36.9627  36.6633 H              1 <1>                0.0000
     30 H30         28.9973  38.0518  36.8718 H              1 <1>                0.0000
     31 H31         29.0069  36.3448  36.3799 H              1 <1>                0.0000
     32 H32         26.6714  37.7035  37.5069 H              1 <1>                0.0000
     33 H33         25.1494  37.1915  39.3632 H              1 <1>                0.0000
     34 H34         28.2977  35.0956  41.3432 H              1 <1>                0.0000
     35 H35         30.2267  34.4258  39.8266 H              1 <1>                0.0000
     36 H36         30.7464  36.0534  40.3225 H              1 <1>                0.0000
     37 H37         31.5469  37.2493  35.3959 H              1 <1>                0.0000
     38 H38         31.8449  36.2119  34.1510 H              1 <1>                0.0000
     39 H39         26.1903  35.2730  42.1968 H              1 <1>                0.0000
@<TRIPOS>BOND
    1    1    2 1     
    2    1   19 1     
    3    1   20 1     
    4    1   21 1     
    5    2    3 1     
    6    2   37 1     
    7    2   38 1     
    8    3    4 1     
    9    3   22 1     
   10    3   23 1     
   11    4    5 1     
   12    4   24 1     
   13    4   25 1     
   14    5    6 1     
   15    5   26 1     
   16    5   27 1     
   17    6    7 2     
   18    6    8 am    
   19    8    9 1     
   20    8   18 1     
   21    9   10 1     
   22    9   28 1     
   23    9   29 1     
   24   10   11 1     
   25   10   30 1     
   26   10   31 1     
   27   11   12 ar    
   28   11   17 ar    
   29   12   13 ar    
   30   12   32 1     
   31   13   14 ar    
   32   13   33 1     
   33   14   15 1     
   34   14   16 ar    
   35   15   39 1     
   36   16   17 ar    
   37   16   34 1     
   38   17   18 1     
   39   18   35 1     
   40   18   36 1     
@<TRIPOS>SUBSTRUCTURE
      1 ****           1
@<TRIPOS>SET
DONOR_HYDROGENS      STATIC     ATOMS    <user>   **** ""
3 37 38 39
ATOM$RED        STATIC     ATOMS    COLORGROUP SYSTEM
3 37 38 39
@<TRIPOS>COMMENT
> <Gold.Version>
2022.2.0

> <Gold.Id.Protein>
1qkm|1qkm_protein|mol2

> <Gold.Protein.RotatedTorsions>
[  496  491  490  487 ] final  -82.49 input  -89.99 | X-H torsion

> <Gold.Protein.ActiveResidues>
 MET295  LEU298  THR299  LEU301  ALA302  GLU305  TRP335  MET336  LEU339  MET340 
 GLY342  LEU343  ARG346  PHE356  ILE373  ILE376  PHE377  LEU380  LYS471  GLY472 
 MET473  HIS475  LEU476  LEU477  ASN478  MET479  VAL484  VAL487 

> <Gold.Protein.RotatedAtoms>
   36.6885   34.6954   41.1727 H   0  0  0  0  0  0  0  0  0  0  0  0  # atno 496  bound_to 491 

> <Gold.Score>
     Score     S(PLP)   S(hbond)     S(cho)   S(metal)  DE(clash)   DE(tors)     intcor
     62.03     -59.69       1.03       0.00       0.00       0.00       0.38       0.01

> <Gold.PLP.Fitness>
62.0316

> <Gold.PLP.PLP>
-59.6870

> <Gold.PLP.part.hbond>
-1.2352

> <Gold.PLP.part.metal>
0.0000

> <Gold.PLP.part.buried>
-4.4879

> <Gold.PLP.part.nonpolar>
-56.0454

> <Gold.PLP.part.repulsive>
0.0857

> <Gold.PLP.ligand.clash>
0.0000

> <Gold.PLP.ligand.torsion>
0.3775

> <Gold.PLP.Chemscore.Hbond>
1.0311

> <Gold.PLP.Chemscore.CHOScore>
0.0000

> <Gold.PLP.Chemscore.Metal>
0.0000

> <Gold.Chemscore.Hbonds>
donor molecule, donor type, donor heavy atom, donor atom, acceptor molecule, acceptor atom, score
      L1  H     2    38       P1  3187  0.06
      L1  H    15    39       P1   582  0.98

> <Gold.PLP.Chemscore.Internal.Correction>
0.0061

