#       Name:                EN300-77635_i001
#       Creating user name   aseyller
#       Creation time:       Fri Apr 21 15:46:35 2023


#       File generated by GOLD software.
#

@<TRIPOS>MOLECULE
EN300-77635_i001|amine_1|mol2|995|dock6
    39    40     1
SMALL
USER_CHARGES


@<TRIPOS>ATOM
      1 C1          28.1531  36.6709  42.1735 C.3            1 <1>                0.0000
      2 N2          27.0457  36.0191  41.4616 N.4            1 <1>                1.0000
      3 C3          26.3577  37.0057  40.6183 C.3            1 <1>                0.0000
      4 C4          26.2111  36.4505  39.2000 C.3            1 <1>                0.0000
      5 C5          27.4803  36.7519  38.4006 C.3            1 <1>                0.0000
      6 C6          28.6078  35.8878  38.9037 C.2            1 <1>                0.0000
      7 O7          28.3655  34.8858  39.5424 O.2            1 <1>                0.0000
      8 N8          29.8856  36.2286  38.6436 N.am           1 <1>                0.0000
      9 C9          31.0097  35.4061  39.1205 C.3            1 <1>                0.0000
     10 C10         31.7356  34.8482  37.8974 C.3            1 <1>                0.0000
     11 C11         31.9907  35.9329  36.8840 C.ar           1 <1>                0.0000
     12 C12         32.9858  35.7096  35.9392 C.ar           1 <1>                0.0000
     13 C13         33.2663  36.6552  34.9769 C.ar           1 <1>                0.0000
     14 C14         32.5481  37.8422  34.9476 C.ar           1 <1>                0.0000
     15 O15         32.8139  38.7788  33.9993 O.3            1 <1>                0.0000
     16 C16         31.5590  38.0666  35.8900 C.ar           1 <1>                0.0000
     17 C17         31.2837  37.1145  36.8611 C.ar           1 <1>                0.0000
     18 C18         30.2121  37.4305  37.8687 C.3            1 <1>                0.0000
     19 H19         28.8563  37.0845  41.4506 H              1 <1>                0.0000
     20 H20         27.7610  37.4731  42.7988 H              1 <1>                0.0000
     21 H21         28.6637  35.9389  42.7992 H              1 <1>                0.0000
     22 H22         25.3704  37.2116  41.0317 H              1 <1>                0.0000
     23 H23         26.9389  37.9274  40.5893 H              1 <1>                0.0000
     24 H24         26.0580  35.3723  39.2460 H              1 <1>                0.0000
     25 H25         25.3554  36.9186  38.7134 H              1 <1>                0.0000
     26 H26         27.3039  36.5414  37.3457 H              1 <1>                0.0000
     27 H27         27.7454  37.8021  38.5220 H              1 <1>                0.0000
     28 H28         31.6934  36.0202  39.7068 H              1 <1>                0.0000
     29 H29         30.6332  34.5859  39.7319 H              1 <1>                0.0000
     30 H30         32.6874  34.4189  38.2103 H              1 <1>                0.0000
     31 H31         31.1242  34.0690  37.4422 H              1 <1>                0.0000
     32 H32         33.5449  34.7858  35.9598 H              1 <1>                0.0000
     33 H33         34.0424  36.4734  34.2484 H              1 <1>                0.0000
     34 H34         30.9980  38.9891  35.8693 H              1 <1>                0.0000
     35 H35         29.3196  37.7818  37.3509 H              1 <1>                0.0000
     36 H36         30.5678  38.2077  38.5450 H              1 <1>                0.0000
     37 H37         27.4087  35.2767  40.8827 H              1 <1>                0.0000
     38 H38         26.3947  35.6363  42.1307 H              1 <1>                0.0000
     39 H39         33.7550  38.8840  33.8033 H              1 <1>                0.0000
@<TRIPOS>BOND
    1    1    2 1     
    2    1   19 1     
    3    1   20 1     
    4    1   21 1     
    5    2    3 1     
    6    2   37 1     
    7    2   38 1     
    8    3    4 1     
    9    3   22 1     
   10    3   23 1     
   11    4    5 1     
   12    4   24 1     
   13    4   25 1     
   14    5    6 1     
   15    5   26 1     
   16    5   27 1     
   17    6    7 2     
   18    6    8 am    
   19    8    9 1     
   20    8   18 1     
   21    9   10 1     
   22    9   28 1     
   23    9   29 1     
   24   10   11 1     
   25   10   30 1     
   26   10   31 1     
   27   11   12 ar    
   28   11   17 ar    
   29   12   13 ar    
   30   12   32 1     
   31   13   14 ar    
   32   13   33 1     
   33   14   15 1     
   34   14   16 ar    
   35   15   39 1     
   36   16   17 ar    
   37   16   34 1     
   38   17   18 1     
   39   18   35 1     
   40   18   36 1     
@<TRIPOS>SUBSTRUCTURE
      1 ****           1
@<TRIPOS>SET
DONOR_HYDROGENS      STATIC     ATOMS    <user>   **** ""
3 37 38 39
ATOM$RED        STATIC     ATOMS    COLORGROUP SYSTEM
3 37 38 39
@<TRIPOS>COMMENT
> <Gold.Version>
2022.2.0

> <Gold.Id.Protein>
1qkm|1qkm_protein|mol2

> <Gold.Protein.RotatedTorsions>
[  496  491  490  487 ] final -138.95 input  -89.99 | X-H torsion

> <Gold.Protein.ActiveResidues>
 MET295  LEU298  THR299  LEU301  ALA302  GLU305  TRP335  MET336  LEU339  MET340 
 GLY342  LEU343  ARG346  PHE356  ILE373  ILE376  PHE377  LEU380  LYS471  GLY472 
 MET473  HIS475  LEU476  LEU477  ASN478  MET479  VAL484  VAL487 

> <Gold.Protein.RotatedAtoms>
   37.1671   34.0898   40.7254 H   0  0  0  0  0  0  0  0  0  0  0  0  # atno 496  bound_to 491 

> <Gold.Score>
     Score     S(PLP)   S(hbond)     S(cho)   S(metal)  DE(clash)   DE(tors)     intcor
     65.62     -58.26       2.98       0.00       0.00       0.00       0.80       0.01

> <Gold.PLP.Fitness>
65.6216

> <Gold.PLP.PLP>
-58.2559

> <Gold.PLP.part.hbond>
-2.0000

> <Gold.PLP.part.metal>
0.0000

> <Gold.PLP.part.buried>
-0.9736

> <Gold.PLP.part.nonpolar>
-54.9605

> <Gold.PLP.part.repulsive>
0.0729

> <Gold.PLP.ligand.clash>
0.0000

> <Gold.PLP.ligand.torsion>
0.7979

> <Gold.PLP.Chemscore.Hbond>
2.9840

> <Gold.PLP.Chemscore.CHOScore>
0.0000

> <Gold.PLP.Chemscore.Metal>
0.0000

> <Gold.Chemscore.Hbonds>
donor molecule, donor type, donor heavy atom, donor atom, acceptor molecule, acceptor atom, score
      L1  H     2    38       P1   582  1.98
      L1  H    15    39       P1  3229  1.00

> <Gold.PLP.Chemscore.Internal.Correction>
0.0095

