#       Name:                EN300-77635_i001
#       Creating user name   aseyller
#       Creation time:       Fri Apr 21 15:46:50 2023


#       File generated by GOLD software.
#

@<TRIPOS>MOLECULE
EN300-77635_i001|amine_1|mol2|995|dock17
    39    40     1
SMALL
USER_CHARGES


@<TRIPOS>ATOM
      1 C1          25.1375  37.5503  42.3482 C.3            1 <1>                0.0000
      2 N2          25.0400  36.8239  41.0751 N.4            1 <1>                1.0000
      3 C3          25.7507  37.5714  40.0292 C.3            1 <1>                0.0000
      4 C4          25.9327  36.6796  38.7993 C.3            1 <1>                0.0000
      5 C5          27.3005  36.9516  38.1700 C.3            1 <1>                0.0000
      6 C6          28.3513  36.1390  38.8816 C.2            1 <1>                0.0000
      7 O7          28.0217  35.2436  39.6302 O.2            1 <1>                0.0000
      8 N8          29.6576  36.4074  38.6861 N.am           1 <1>                0.0000
      9 C9          30.7087  35.6324  39.3659 C.3            1 <1>                0.0000
     10 C10         31.5095  34.8893  38.2978 C.3            1 <1>                0.0000
     11 C11         31.8850  35.8134  37.1692 C.ar           1 <1>                0.0000
     12 C12         32.9439  35.4340  36.3522 C.ar           1 <1>                0.0000
     13 C13         33.3355  36.2270  35.2954 C.ar           1 <1>                0.0000
     14 C14         32.6662  37.4157  35.0412 C.ar           1 <1>                0.0000
     15 O15         33.0417  38.2021  33.9983 O.3            1 <1>                0.0000
     16 C16         31.6134  37.7957  35.8562 C.ar           1 <1>                0.0000
     17 C17         31.2262  36.9974  36.9230 C.ar           1 <1>                0.0000
     18 C18         30.0893  37.4793  37.7826 C.3            1 <1>                0.0000
     19 H19         26.1860  37.6569  42.6264 H              1 <1>                0.0000
     20 H20         24.6887  38.5376  42.2385 H              1 <1>                0.0000
     21 H21         24.6102  36.9957  43.1243 H              1 <1>                0.0000
     22 H22         25.1717  38.4534  39.7558 H              1 <1>                0.0000
     23 H23         26.7275  37.8792  40.4024 H              1 <1>                0.0000
     24 H24         25.8714  35.6329  39.0972 H              1 <1>                0.0000
     25 H25         25.1491  36.8972  38.0736 H              1 <1>                0.0000
     26 H26         27.2776  36.6731  37.1163 H              1 <1>                0.0000
     27 H27         27.5378  38.0115  38.2605 H              1 <1>                0.0000
     28 H28         31.3651  36.3057  39.9172 H              1 <1>                0.0000
     29 H29         30.2543  34.9164  40.0509 H              1 <1>                0.0000
     30 H30         32.4166  34.4847  38.7467 H              1 <1>                0.0000
     31 H31         30.9084  34.0693  37.9048 H              1 <1>                0.0000
     32 H32         33.4652  34.5086  36.5479 H              1 <1>                0.0000
     33 H33         34.1605  35.9247  34.6676 H              1 <1>                0.0000
     34 H34         31.0903  38.7199  35.6604 H              1 <1>                0.0000
     35 H35         29.2549  37.7764  37.1474 H              1 <1>                0.0000
     36 H36         30.4179  38.3350  38.3724 H              1 <1>                0.0000
     37 H37         25.4555  35.9101  41.1767 H              1 <1>                0.0000
     38 H38         24.0695  36.7253  40.8176 H              1 <1>                0.0000
     39 H39         33.9746  38.1179  33.7581 H              1 <1>                0.0000
@<TRIPOS>BOND
    1    1    2 1     
    2    1   19 1     
    3    1   20 1     
    4    1   21 1     
    5    2    3 1     
    6    2   37 1     
    7    2   38 1     
    8    3    4 1     
    9    3   22 1     
   10    3   23 1     
   11    4    5 1     
   12    4   24 1     
   13    4   25 1     
   14    5    6 1     
   15    5   26 1     
   16    5   27 1     
   17    6    7 2     
   18    6    8 am    
   19    8    9 1     
   20    8   18 1     
   21    9   10 1     
   22    9   28 1     
   23    9   29 1     
   24   10   11 1     
   25   10   30 1     
   26   10   31 1     
   27   11   12 ar    
   28   11   17 ar    
   29   12   13 ar    
   30   12   32 1     
   31   13   14 ar    
   32   13   33 1     
   33   14   15 1     
   34   14   16 ar    
   35   15   39 1     
   36   16   17 ar    
   37   16   34 1     
   38   17   18 1     
   39   18   35 1     
   40   18   36 1     
@<TRIPOS>SUBSTRUCTURE
      1 ****           1
@<TRIPOS>SET
DONOR_HYDROGENS      STATIC     ATOMS    <user>   **** ""
3 37 38 39
ATOM$RED        STATIC     ATOMS    COLORGROUP SYSTEM
3 37 38 39
@<TRIPOS>COMMENT
> <Gold.Version>
2022.2.0

> <Gold.Id.Protein>
1qkm|1qkm_protein|mol2

> <Gold.Protein.RotatedTorsions>
[  496  491  490  487 ] final  -57.65 input  -89.99 | X-H torsion

> <Gold.Protein.ActiveResidues>
 MET295  LEU298  THR299  LEU301  ALA302  GLU305  TRP335  MET336  LEU339  MET340 
 GLY342  LEU343  ARG346  PHE356  ILE373  ILE376  PHE377  LEU380  LYS471  GLY472 
 MET473  HIS475  LEU476  LEU477  ASN478  MET479  VAL484  VAL487 

> <Gold.Protein.RotatedAtoms>
   36.4791   34.7279   41.5188 H   0  0  0  0  0  0  0  0  0  0  0  0  # atno 496  bound_to 491 

> <Gold.Score>
     Score     S(PLP)   S(hbond)     S(cho)   S(metal)  DE(clash)   DE(tors)     intcor
     60.12     -55.29       2.00       0.00       0.00       0.00       0.59       0.01

> <Gold.PLP.Fitness>
60.1195

> <Gold.PLP.PLP>
-55.2851

> <Gold.PLP.part.hbond>
-2.0000

> <Gold.PLP.part.metal>
0.0000

> <Gold.PLP.part.buried>
3.6749

> <Gold.PLP.part.nonpolar>
-58.0511

> <Gold.PLP.part.repulsive>
0.2089

> <Gold.PLP.ligand.clash>
0.0000

> <Gold.PLP.ligand.torsion>
0.5859

> <Gold.PLP.Chemscore.Hbond>
2.0000

> <Gold.PLP.Chemscore.CHOScore>
0.0000

> <Gold.PLP.Chemscore.Metal>
0.0000

> <Gold.Chemscore.Hbonds>
donor molecule, donor type, donor heavy atom, donor atom, acceptor molecule, acceptor atom, score
      L1  H     2    38       P1  1131  1.00
      L1  H    15    39       P1  3229  1.00

> <Gold.PLP.Chemscore.Internal.Correction>
0.0061

