#       Name:                EN300-77635_i001
#       Creating user name   aseyller
#       Creation time:       Fri Apr 21 15:46:42 2023


#       File generated by GOLD software.
#

@<TRIPOS>MOLECULE
EN300-77635_i001|amine_1|mol2|995|dock11
    39    40     1
SMALL
USER_CHARGES


@<TRIPOS>ATOM
      1 C1          32.9140  36.4021  34.9251 C.3            1 <1>                0.0000
      2 N2          31.7455  37.2011  34.5325 N.4            1 <1>                1.0000
      3 C3          31.0230  37.6359  35.7353 C.3            1 <1>                0.0000
      4 C4          30.6291  39.1072  35.5897 C.3            1 <1>                0.0000
      5 C5          30.1190  39.6339  36.9326 C.3            1 <1>                0.0000
      6 C6          28.7226  39.1221  37.1753 C.2            1 <1>                0.0000
      7 O7          27.7682  39.7414  36.7553 O.2            1 <1>                0.0000
      8 N8          28.5343  37.9760  37.8589 N.am           1 <1>                0.0000
      9 C9          29.6714  37.2006  38.3819 C.3            1 <1>                0.0000
     10 C10         29.5806  37.2043  39.9070 C.3            1 <1>                0.0000
     11 C11         28.1847  36.8683  40.3621 C.ar           1 <1>                0.0000
     12 C12         28.0248  36.4154  41.6668 C.ar           1 <1>                0.0000
     13 C13         26.7749  36.0983  42.1525 C.ar           1 <1>                0.0000
     14 C14         25.6629  36.2335  41.3335 C.ar           1 <1>                0.0000
     15 O15         24.4254  35.9281  41.8050 O.3            1 <1>                0.0000
     16 C16         25.8216  36.6817  40.0332 C.ar           1 <1>                0.0000
     17 C17         27.0827  36.9941  39.5459 C.ar           1 <1>                0.0000
     18 C18         27.1880  37.4541  38.1173 C.3            1 <1>                0.0000
     19 H19         33.5745  37.0060  35.5474 H              1 <1>                0.0000
     20 H20         32.5844  35.5281  35.4869 H              1 <1>                0.0000
     21 H21         33.4501  36.0795  34.0326 H              1 <1>                0.0000
     22 H22         30.1255  37.0300  35.8590 H              1 <1>                0.0000
     23 H23         31.6652  37.5164  36.6080 H              1 <1>                0.0000
     24 H24         31.4980  39.6868  35.2784 H              1 <1>                0.0000
     25 H25         29.8428  39.2003  34.8406 H              1 <1>                0.0000
     26 H26         30.7762  39.2897  37.7312 H              1 <1>                0.0000
     27 H27         30.1086  40.7237  36.9151 H              1 <1>                0.0000
     28 H28         29.6207  36.1765  38.0119 H              1 <1>                0.0000
     29 H29         30.6078  37.6612  38.0670 H              1 <1>                0.0000
     30 H30         30.2760  36.4675  40.3093 H              1 <1>                0.0000
     31 H31         29.8511  38.1922  40.2798 H              1 <1>                0.0000
     32 H32         28.8891  36.3106  42.3059 H              1 <1>                0.0000
     33 H33         26.6611  35.7454  43.1668 H              1 <1>                0.0000
     34 H34         24.9580  36.7885  39.3936 H              1 <1>                0.0000
     35 H35         26.4535  38.2382  37.9337 H              1 <1>                0.0000
     36 H36         26.9949  36.6138  37.4505 H              1 <1>                0.0000
     37 H37         32.0507  38.0102  34.0126 H              1 <1>                0.0000
     38 H38         31.1340  36.6422  33.9565 H              1 <1>                0.0000
     39 H39         23.8282  35.5655  41.1365 H              1 <1>                0.0000
@<TRIPOS>BOND
    1    1    2 1     
    2    1   19 1     
    3    1   20 1     
    4    1   21 1     
    5    2    3 1     
    6    2   37 1     
    7    2   38 1     
    8    3    4 1     
    9    3   22 1     
   10    3   23 1     
   11    4    5 1     
   12    4   24 1     
   13    4   25 1     
   14    5    6 1     
   15    5   26 1     
   16    5   27 1     
   17    6    7 2     
   18    6    8 am    
   19    8    9 1     
   20    8   18 1     
   21    9   10 1     
   22    9   28 1     
   23    9   29 1     
   24   10   11 1     
   25   10   30 1     
   26   10   31 1     
   27   11   12 ar    
   28   11   17 ar    
   29   12   13 ar    
   30   12   32 1     
   31   13   14 ar    
   32   13   33 1     
   33   14   15 1     
   34   14   16 ar    
   35   15   39 1     
   36   16   17 ar    
   37   16   34 1     
   38   17   18 1     
   39   18   35 1     
   40   18   36 1     
@<TRIPOS>SUBSTRUCTURE
      1 ****           1
@<TRIPOS>SET
DONOR_HYDROGENS      STATIC     ATOMS    <user>   **** ""
3 37 38 39
ATOM$RED        STATIC     ATOMS    COLORGROUP SYSTEM
3 37 38 39
@<TRIPOS>COMMENT
> <Gold.Version>
2022.2.0

> <Gold.Id.Protein>
1qkm|1qkm_protein|mol2

> <Gold.Protein.RotatedTorsions>
[  496  491  490  487 ] final   26.05 input  -89.99 | X-H torsion

> <Gold.Protein.ActiveResidues>
 MET295  LEU298  THR299  LEU301  ALA302  GLU305  TRP335  MET336  LEU339  MET340 
 GLY342  LEU343  ARG346  PHE356  ILE373  ILE376  PHE377  LEU380  LYS471  GLY472 
 MET473  HIS475  LEU476  LEU477  ASN478  MET479  VAL484  VAL487 

> <Gold.Protein.RotatedAtoms>
   36.3273   33.8172   42.3740 H   0  0  0  0  0  0  0  0  0  0  0  0  # atno 496  bound_to 491 

> <Gold.Score>
     Score     S(PLP)   S(hbond)     S(cho)   S(metal)  DE(clash)   DE(tors)     intcor
     60.92     -56.48       1.99       0.00       0.00       0.00       0.77       0.01

> <Gold.PLP.Fitness>
60.9154

> <Gold.PLP.PLP>
-56.4764

> <Gold.PLP.part.hbond>
-3.7840

> <Gold.PLP.part.metal>
0.0000

> <Gold.PLP.part.buried>
5.7100

> <Gold.PLP.part.nonpolar>
-58.1480

> <Gold.PLP.part.repulsive>
0.0167

> <Gold.PLP.ligand.clash>
0.0000

> <Gold.PLP.ligand.torsion>
0.7716

> <Gold.PLP.Chemscore.Hbond>
1.9920

> <Gold.PLP.Chemscore.CHOScore>
0.0000

> <Gold.PLP.Chemscore.Metal>
0.0000

> <Gold.Chemscore.Hbonds>
donor molecule, donor type, donor heavy atom, donor atom, acceptor molecule, acceptor atom, score
      L1  H    15    39       P1  1131  0.99
      P1  H  1258  1270       L1    15  1.00

> <Gold.PLP.Chemscore.Internal.Correction>
0.0062

