#       Name:                EN300-77635_i001
#       Creating user name   aseyller
#       Creation time:       Fri Apr 21 15:46:47 2023


#       File generated by GOLD software.
#

@<TRIPOS>MOLECULE
EN300-77635_i001|amine_1|mol2|995|dock15
    39    40     1
SMALL
USER_CHARGES


@<TRIPOS>ATOM
      1 C1          30.9149  39.2286  34.9002 C.3            1 <1>                0.0000
      2 N2          31.6797  37.9824  34.7584 N.4            1 <1>                1.0000
      3 C3          32.6915  37.9054  35.8206 C.3            1 <1>                0.0000
      4 C4          33.1476  36.4543  35.9862 C.3            1 <1>                0.0000
      5 C5          31.9279  35.5591  36.2138 C.3            1 <1>                0.0000
      6 C6          31.5647  35.5672  37.6763 C.2            1 <1>                0.0000
      7 O7          32.0547  34.7509  38.4274 O.2            1 <1>                0.0000
      8 N8          30.6952  36.4818  38.1496 N.am           1 <1>                0.0000
      9 C9          30.0828  37.4863  37.2644 C.3            1 <1>                0.0000
     10 C10         28.5775  37.2270  37.2304 C.3            1 <1>                0.0000
     11 C11         28.0342  37.0387  38.6225 C.ar           1 <1>                0.0000
     12 C12         26.6684  37.2191  38.8100 C.ar           1 <1>                0.0000
     13 C13         26.1021  37.0540  40.0553 C.ar           1 <1>                0.0000
     14 C14         26.9008  36.7021  41.1342 C.ar           1 <1>                0.0000
     15 O15         26.3507  36.5320  42.3652 O.3            1 <1>                0.0000
     16 C16         28.2613  36.5251  40.9488 C.ar           1 <1>                0.0000
     17 C17         28.8288  36.6983  39.6945 C.ar           1 <1>                0.0000
     18 C18         30.3163  36.5127  39.5664 C.3            1 <1>                0.0000
     19 H19         30.4228  39.2443  35.8726 H              1 <1>                0.0000
     20 H20         31.5904  40.0805  34.8211 H              1 <1>                0.0000
     21 H21         30.1641  39.2858  34.1121 H              1 <1>                0.0000
     22 H22         33.5464  38.5267  35.5538 H              1 <1>                0.0000
     23 H23         32.2625  38.2606  36.7576 H              1 <1>                0.0000
     24 H24         33.6712  36.1331  35.0859 H              1 <1>                0.0000
     25 H25         33.8179  36.3797  36.8425 H              1 <1>                0.0000
     26 H26         31.0879  35.9337  35.6287 H              1 <1>                0.0000
     27 H27         32.1615  34.5408  35.9031 H              1 <1>                0.0000
     28 H28         30.2761  38.4865  37.6522 H              1 <1>                0.0000
     29 H29         30.4958  37.3934  36.2599 H              1 <1>                0.0000
     30 H30         28.0781  38.0754  36.7624 H              1 <1>                0.0000
     31 H31         28.3816  36.3289  36.6446 H              1 <1>                0.0000
     32 H32         26.0452  37.4918  37.9712 H              1 <1>                0.0000
     33 H33         25.0405  37.1982  40.1913 H              1 <1>                0.0000
     34 H34         28.8854  36.2507  41.7864 H              1 <1>                0.0000
     35 H35         30.6069  35.5751  40.0401 H              1 <1>                0.0000
     36 H36         30.8287  37.3403  40.0569 H              1 <1>                0.0000
     37 H37         31.0544  37.1940  34.8317 H              1 <1>                0.0000
     38 H38         32.1353  37.9679  33.8583 H              1 <1>                0.0000
     39 H39         26.3228  35.6114  42.6597 H              1 <1>                0.0000
@<TRIPOS>BOND
    1    1    2 1     
    2    1   19 1     
    3    1   20 1     
    4    1   21 1     
    5    2    3 1     
    6    2   37 1     
    7    2   38 1     
    8    3    4 1     
    9    3   22 1     
   10    3   23 1     
   11    4    5 1     
   12    4   24 1     
   13    4   25 1     
   14    5    6 1     
   15    5   26 1     
   16    5   27 1     
   17    6    7 2     
   18    6    8 am    
   19    8    9 1     
   20    8   18 1     
   21    9   10 1     
   22    9   28 1     
   23    9   29 1     
   24   10   11 1     
   25   10   30 1     
   26   10   31 1     
   27   11   12 ar    
   28   11   17 ar    
   29   12   13 ar    
   30   12   32 1     
   31   13   14 ar    
   32   13   33 1     
   33   14   15 1     
   34   14   16 ar    
   35   15   39 1     
   36   16   17 ar    
   37   16   34 1     
   38   17   18 1     
   39   18   35 1     
   40   18   36 1     
@<TRIPOS>SUBSTRUCTURE
      1 ****           1
@<TRIPOS>SET
DONOR_HYDROGENS      STATIC     ATOMS    <user>   **** ""
3 37 38 39
ATOM$RED        STATIC     ATOMS    COLORGROUP SYSTEM
3 37 38 39
@<TRIPOS>COMMENT
> <Gold.Version>
2022.2.0

> <Gold.Id.Protein>
1qkm|1qkm_protein|mol2

> <Gold.Protein.RotatedTorsions>
[  496  491  490  487 ] final   24.40 input  -89.99 | X-H torsion

> <Gold.Protein.ActiveResidues>
 MET295  LEU298  THR299  LEU301  ALA302  GLU305  TRP335  MET336  LEU339  MET340 
 GLY342  LEU343  ARG346  PHE356  ILE373  ILE376  PHE377  LEU380  LYS471  GLY472 
 MET473  HIS475  LEU476  LEU477  ASN478  MET479  VAL484  VAL487 

> <Gold.Protein.RotatedAtoms>
   36.3200   33.8430   42.3701 H   0  0  0  0  0  0  0  0  0  0  0  0  # atno 496  bound_to 491 

> <Gold.Score>
     Score     S(PLP)   S(hbond)     S(cho)   S(metal)  DE(clash)   DE(tors)     intcor
     58.52     -56.73       1.00       0.00       0.00       0.00       0.61       0.01

> <Gold.PLP.Fitness>
58.5226

> <Gold.PLP.PLP>
-56.7325

> <Gold.PLP.part.hbond>
-0.7238

> <Gold.PLP.part.metal>
0.0000

> <Gold.PLP.part.buried>
-5.1358

> <Gold.PLP.part.nonpolar>
-51.7675

> <Gold.PLP.part.repulsive>
0.0713

> <Gold.PLP.ligand.clash>
0.0000

> <Gold.PLP.ligand.torsion>
0.6081

> <Gold.PLP.Chemscore.Hbond>
1.0000

> <Gold.PLP.Chemscore.CHOScore>
0.0000

> <Gold.PLP.Chemscore.Metal>
0.0000

> <Gold.Chemscore.Hbonds>
donor molecule, donor type, donor heavy atom, donor atom, acceptor molecule, acceptor atom, score
      L1  H    15    39       P1   582  1.00

> <Gold.PLP.Chemscore.Internal.Correction>
0.0062

