#       Name:                EN300-14823_i001
#       Creating user name   fsindt
#       Creation time:       Thu Mar  2 02:47:14 2023


#       File generated by GOLD software.
#

@<TRIPOS>MOLECULE
EN300-14823_i001|acide_1|mol2|11555|dock4
    28    28     1
SMALL
USER_CHARGES


@<TRIPOS>ATOM
      1 C1          -3.2610 -10.5213  10.5611 C.3            1 <1>                0.0000
      2 O2          -2.1177 -10.5367   9.7039 O.3            1 <1>                0.0000
      3 C3          -1.3495 -11.6577   9.7202 C.ar           1 <1>                0.0000
      4 C4          -1.2854 -12.4389  10.8653 C.ar           1 <1>                0.0000
      5 C5          -0.5045 -13.5787  10.8827 C.ar           1 <1>                0.0000
      6 C6          -0.4368 -14.4254  12.1276 C.3            1 <1>                0.0000
      7 C7           0.7965 -15.3286  12.0634 C.3            1 <1>                0.0000
      8 C8           1.0853 -15.8825  13.4349 C.2            1 <1>                0.0000
      9 O9           0.3318 -15.6389  14.3619 O.co2          1 <1>                0.0000
     10 O10          2.0726 -16.5742  13.6175 O.co2          1 <1>               -1.0000
     11 C11          0.2140 -13.9438   9.7603 C.ar           1 <1>                0.0000
     12 C12          0.1532 -13.1658   8.6128 C.ar           1 <1>                0.0000
     13 O13          0.8599 -13.5256   7.5091 O.3            1 <1>                0.0000
     14 C14          1.1028 -14.9211   7.3209 C.3            1 <1>                0.0000
     15 C15         -0.6336 -12.0246   8.5912 C.ar           1 <1>                0.0000
     16 H16         -3.7847  -9.5717  10.4512 H              1 <1>                0.0000
     17 H17         -3.9295 -11.3384  10.2900 H              1 <1>                0.0000
     18 H18         -2.9408 -10.6420  11.5960 H              1 <1>                0.0000
     19 H19         -1.8462 -12.1556  11.7439 H              1 <1>                0.0000
     20 H20         -0.3689 -13.7795  13.0030 H              1 <1>                0.0000
     21 H21         -1.3340 -15.0401  12.1982 H              1 <1>                0.0000
     22 H22          0.6096 -16.1501  11.3718 H              1 <1>                0.0000
     23 H23          1.6530 -14.7501  11.7174 H              1 <1>                0.0000
     24 H24          0.8237 -14.8352   9.7763 H              1 <1>                0.0000
     25 H25          1.6753 -15.0700   6.4054 H              1 <1>                0.0000
     26 H26          1.6667 -15.3094   8.1692 H              1 <1>                0.0000
     27 H27          0.1520 -15.4485   7.2447 H              1 <1>                0.0000
     28 H28         -0.6822 -11.4179   7.6991 H              1 <1>                0.0000
@<TRIPOS>BOND
    1    1    2 1     
    2    1   16 1     
    3    1   17 1     
    4    1   18 1     
    5    2    3 1     
    6    3    4 ar    
    7    3   15 ar    
    8    4    5 ar    
    9    4   19 1     
   10    5    6 1     
   11    5   11 ar    
   12    6    7 1     
   13    6   20 1     
   14    6   21 1     
   15    7    8 1     
   16    7   22 1     
   17    7   23 1     
   18    8    9 ar    
   19    8   10 ar    
   20   11   12 ar    
   21   11   24 1     
   22   12   13 1     
   23   12   15 ar    
   24   13   14 1     
   25   14   25 1     
   26   14   26 1     
   27   14   27 1     
   28   15   28 1     
@<TRIPOS>SUBSTRUCTURE
      1 ****           1
@<TRIPOS>COMMENT
> <Gold.Version>
2022.2.0

> <Gold.Id.Protein>
3pbl|protein|mol2

> <Gold.Protein.RotatedTorsions>
[ 1303 1298 1297 1294 ] final  117.39 input  179.99 | X-H torsion
[ 2461 2456 2455 2452 ] final  117.30 input   30.03 | X-H torsion
[ 2515 2510 2509 2506 ] final   69.10 input  -89.99 | X-H torsion
[ 3721 3712 3711 3710 ] final   17.24 input -179.91 | X-H torsion
[ 3841 3832 3831 3830 ] final -120.35 input -179.91 | X-H torsion
[ 3767 3762 3761 3758 ] final  143.03 input  -89.99 | X-H torsion
[ 2472 2467 2466 2463 ] final -134.99 input  -89.97 | X-H torsion

> <Gold.Protein.ActiveResidues>
 VAL82   VAL86   LEU89   PHE106  VAL107  ASP110  VAL111  MET112  CYS114  THR115 
 CYS181  SER182  ILE183  PHE188  VAL189  ILE190  SER192  SER193  SER196  TRP342 
 PHE345  PHE346  HIS349  VAL350  TYR365  THR369  GLY372  TYR373 

> <Gold.Protein.RotatedAtoms>
    4.7196   -9.8073    4.9486 H   0  0  0  0  0  0  0  0  0  0  0  0  # atno 1303 bound_to 1298
    2.1329   -8.6134    8.0364 H   0  0  0  0  0  0  0  0  0  0  0  0  # atno 2461 bound_to 2456
   -4.7457   -5.4627    9.4118 H   0  0  0  0  0  0  0  0  0  0  0  0  # atno 2472 bound_to 2467
    2.1080   -7.5222    5.5796 H   0  0  0  0  0  0  0  0  0  0  0  0  # atno 2515 bound_to 2510
   -2.4700  -18.0251   13.9924 H   0  0  0  0  0  0  0  0  0  0  0  0  # atno 3721 bound_to 3712
   -3.9077  -22.9750   11.2099 H   0  0  0  0  0  0  0  0  0  0  0  0  # atno 3767 bound_to 3762
    2.2285  -19.5943    8.4550 H   0  0  0  0  0  0  0  0  0  0  0  0  # atno 3841 bound_to 3832
    3.3736   -9.8382    4.0247 LP  0  0  0  0  0  0  0  0  0  0  0  0  # atno 4297 bound_to 1298
    4.2688   -8.4757    4.1180 LP  0  0  0  0  0  0  0  0  0  0  0  0  # atno 4298 bound_to 1298
    0.9992   -8.0035    7.0313 LP  0  0  0  0  0  0  0  0  0  0  0  0  # atno 4299 bound_to 2456
    0.6059   -9.1913    8.0806 LP  0  0  0  0  0  0  0  0  0  0  0  0  # atno 4300 bound_to 2456
    2.8024   -8.3540    4.3582 LP  0  0  0  0  0  0  0  0  0  0  0  0  # atno 4301 bound_to 2510
    2.3865   -9.1233    5.7373 LP  0  0  0  0  0  0  0  0  0  0  0  0  # atno 4302 bound_to 2510
   -3.3299  -16.8467   14.6631 LP  0  0  0  0  0  0  0  0  0  0  0  0  # atno 4306 bound_to 3712
   -3.3462  -17.0694   13.0455 LP  0  0  0  0  0  0  0  0  0  0  0  0  # atno 4307 bound_to 3712
    3.0604  -20.9190    8.8142 LP  0  0  0  0  0  0  0  0  0  0  0  0  # atno 4314 bound_to 3832
    1.5947  -20.6518    9.4826 LP  0  0  0  0  0  0  0  0  0  0  0  0  # atno 4315 bound_to 3832
   -5.0725  -22.9855   10.0654 LP  0  0  0  0  0  0  0  0  0  0  0  0  # atno 4318 bound_to 3762
   -5.1468  -21.9147   11.2960 LP  0  0  0  0  0  0  0  0  0  0  0  0  # atno 4319 bound_to 3762
   -5.2838   -4.9920    7.9437 LP  0  0  0  0  0  0  0  0  0  0  0  0  # atno 4320 bound_to 2467
   -3.6875   -4.9389    8.2838 LP  0  0  0  0  0  0  0  0  0  0  0  0  # atno 4321 bound_to 2467

> <Gold.Score>
     Score     S(PLP)   S(hbond)     S(cho)   S(metal)  DE(clash)   DE(tors)     intcor
     50.62     -48.38       1.00       0.00       0.00       0.01       1.07       1.39

> <Gold.PLP.Fitness>
50.6206

> <Gold.PLP.PLP>
-48.3815

> <Gold.PLP.part.hbond>
-1.0000

> <Gold.PLP.part.metal>
0.0000

> <Gold.PLP.part.buried>
-7.3142

> <Gold.PLP.part.nonpolar>
-41.6297

> <Gold.PLP.part.repulsive>
0.2011

> <Gold.PLP.ligand.clash>
0.0078

> <Gold.PLP.ligand.torsion>
1.0734

> <Gold.PLP.Chemscore.Hbond>
1.0000

> <Gold.PLP.Chemscore.CHOScore>
0.0000

> <Gold.PLP.Chemscore.Metal>
0.0000

> <Gold.Chemscore.Hbonds>
donor molecule, donor type, donor heavy atom, donor atom, acceptor molecule, acceptor atom, score
      P1  H  2305  2313       L1     9  1.00

> <Gold.PLP.Chemscore.Internal.Correction>
1.3938

