#       Name:                EN300-14823_i001
#       Creating user name   fsindt
#       Creation time:       Thu Mar  2 02:47:23 2023


#       File generated by GOLD software.
#

@<TRIPOS>MOLECULE
EN300-14823_i001|acide_1|mol2|11555|dock18
    28    28     1
SMALL
USER_CHARGES


@<TRIPOS>ATOM
      1 C1           1.2775 -13.1012   6.5404 C.3            1 <1>                0.0000
      2 O2           1.3408 -13.8265   7.7701 O.3            1 <1>                0.0000
      3 C3           0.6172 -13.3388   8.8119 C.ar           1 <1>                0.0000
      4 C4           0.2686 -14.1719   9.8655 C.ar           1 <1>                0.0000
      5 C5          -0.4672 -13.6767  10.9251 C.ar           1 <1>                0.0000
      6 C6          -0.8444 -14.5836  12.0681 C.3            1 <1>                0.0000
      7 C7           0.0597 -15.8179  12.0595 C.3            1 <1>                0.0000
      8 C8           0.0352 -16.4679  13.4189 C.2            1 <1>                0.0000
      9 O9          -0.4423 -17.5816  13.5537 O.co2          1 <1>                0.0000
     10 O10          0.4929 -15.8800  14.3840 O.co2          1 <1>               -1.0000
     11 C11         -0.8572 -12.3512  10.9388 C.ar           1 <1>                0.0000
     12 C12         -0.5110 -11.5141   9.8874 C.ar           1 <1>                0.0000
     13 O13         -0.8946 -10.2104   9.9016 O.3            1 <1>                0.0000
     14 C14         -1.1435  -9.6214  11.1795 C.3            1 <1>                0.0000
     15 C15          0.2315 -12.0073   8.8257 C.ar           1 <1>                0.0000
     16 H16          1.8987 -13.5965   5.7941 H              1 <1>                0.0000
     17 H17          0.2457 -13.0685   6.1905 H              1 <1>                0.0000
     18 H18          1.6399 -12.0854   6.6987 H              1 <1>                0.0000
     19 H19          0.5723 -15.2083   9.8572 H              1 <1>                0.0000
     20 H20         -0.7222 -14.0502  13.0108 H              1 <1>                0.0000
     21 H21         -1.8836 -14.8937  11.9581 H              1 <1>                0.0000
     22 H22         -0.2987 -16.5256  11.3119 H              1 <1>                0.0000
     23 H23          1.0797 -15.5195  11.8177 H              1 <1>                0.0000
     24 H24         -1.4322 -11.9665  11.7681 H              1 <1>                0.0000
     25 H25         -1.4412  -8.5810  11.0482 H              1 <1>                0.0000
     26 H26         -1.9422 -10.1672  11.6818 H              1 <1>                0.0000
     27 H27         -0.2371  -9.6665  11.7831 H              1 <1>                0.0000
     28 H28          0.5019 -11.3574   8.0066 H              1 <1>                0.0000
@<TRIPOS>BOND
    1    1    2 1     
    2    1   16 1     
    3    1   17 1     
    4    1   18 1     
    5    2    3 1     
    6    3    4 ar    
    7    3   15 ar    
    8    4    5 ar    
    9    4   19 1     
   10    5    6 1     
   11    5   11 ar    
   12    6    7 1     
   13    6   20 1     
   14    6   21 1     
   15    7    8 1     
   16    7   22 1     
   17    7   23 1     
   18    8    9 ar    
   19    8   10 ar    
   20   11   12 ar    
   21   11   24 1     
   22   12   13 1     
   23   12   15 ar    
   24   13   14 1     
   25   14   25 1     
   26   14   26 1     
   27   14   27 1     
   28   15   28 1     
@<TRIPOS>SUBSTRUCTURE
      1 ****           1
@<TRIPOS>COMMENT
> <Gold.Version>
2022.2.0

> <Gold.Id.Protein>
3pbl|protein|mol2

> <Gold.Protein.RotatedTorsions>
[ 1303 1298 1297 1294 ] final   66.33 input  179.99 | X-H torsion
[ 2461 2456 2455 2452 ] final  -80.10 input   30.03 | X-H torsion
[ 2515 2510 2509 2506 ] final  -73.32 input  -89.99 | X-H torsion
[ 3721 3712 3711 3710 ] final   26.66 input -179.91 | X-H torsion
[ 3841 3832 3831 3830 ] final  -38.51 input -179.91 | X-H torsion
[ 3767 3762 3761 3758 ] final -125.24 input  -89.99 | X-H torsion
[ 2472 2467 2466 2463 ] final  146.29 input  -89.97 | X-H torsion

> <Gold.Protein.ActiveResidues>
 VAL82   VAL86   LEU89   PHE106  VAL107  ASP110  VAL111  MET112  CYS114  THR115 
 CYS181  SER182  ILE183  PHE188  VAL189  ILE190  SER192  SER193  SER196  TRP342 
 PHE345  PHE346  HIS349  VAL350  TYR365  THR369  GLY372  TYR373 

> <Gold.Protein.RotatedAtoms>
    4.0951  -10.2579    4.6896 H   0  0  0  0  0  0  0  0  0  0  0  0  # atno 1303 bound_to 1298
    0.3316   -8.7976    7.5916 H   0  0  0  0  0  0  0  0  0  0  0  0  # atno 2461 bound_to 2456
   -5.5100   -5.2264    8.5230 H   0  0  0  0  0  0  0  0  0  0  0  0  # atno 2472 bound_to 2467
    2.8358   -8.7049    4.4589 H   0  0  0  0  0  0  0  0  0  0  0  0  # atno 2515 bound_to 2510
   -2.4772  -18.0344   13.8506 H   0  0  0  0  0  0  0  0  0  0  0  0  # atno 3721 bound_to 3712
   -4.7758  -21.9961   11.5564 H   0  0  0  0  0  0  0  0  0  0  0  0  # atno 3767 bound_to 3762
    1.5613  -20.0325    9.2605 H   0  0  0  0  0  0  0  0  0  0  0  0  # atno 3841 bound_to 3832
    3.4486   -9.0676    3.7778 LP  0  0  0  0  0  0  0  0  0  0  0  0  # atno 4297 bound_to 1298
    4.8184   -8.7955    4.6241 LP  0  0  0  0  0  0  0  0  0  0  0  0  # atno 4298 bound_to 1298
    1.7449   -9.0748    8.3618 LP  0  0  0  0  0  0  0  0  0  0  0  0  # atno 4299 bound_to 2456
    1.6609   -7.9358    7.1947 LP  0  0  0  0  0  0  0  0  0  0  0  0  # atno 4300 bound_to 2456
    2.2369   -8.8802    5.9676 LP  0  0  0  0  0  0  0  0  0  0  0  0  # atno 4301 bound_to 2510
    2.2239   -7.4139    5.2491 LP  0  0  0  0  0  0  0  0  0  0  0  0  # atno 4302 bound_to 2510
   -3.2588  -16.9575   14.7491 LP  0  0  0  0  0  0  0  0  0  0  0  0  # atno 4306 bound_to 3712
   -3.4089  -16.9478   13.1231 LP  0  0  0  0  0  0  0  0  0  0  0  0  # atno 4307 bound_to 3712
    2.7060  -19.9219    8.1409 LP  0  0  0  0  0  0  0  0  0  0  0  0  # atno 4314 bound_to 3832
    2.7198  -21.1427    9.2254 LP  0  0  0  0  0  0  0  0  0  0  0  0  # atno 4315 bound_to 3832
   -3.9836  -23.2264   10.8316 LP  0  0  0  0  0  0  0  0  0  0  0  0  # atno 4318 bound_to 3762
   -5.3680  -22.6523   10.1833 LP  0  0  0  0  0  0  0  0  0  0  0  0  # atno 4319 bound_to 3762
   -4.1124   -4.8076    7.7897 LP  0  0  0  0  0  0  0  0  0  0  0  0  # atno 4320 bound_to 2467
   -4.0947   -5.3595    9.3265 LP  0  0  0  0  0  0  0  0  0  0  0  0  # atno 4321 bound_to 2467

> <Gold.Score>
     Score     S(PLP)   S(hbond)     S(cho)   S(metal)  DE(clash)   DE(tors)     intcor
     46.74     -42.53       1.75       0.00       0.00       0.33       1.03       1.36

> <Gold.PLP.Fitness>
46.7424

> <Gold.PLP.PLP>
-42.5348

> <Gold.PLP.part.hbond>
-2.0557

> <Gold.PLP.part.metal>
0.0000

> <Gold.PLP.part.buried>
-6.9319

> <Gold.PLP.part.nonpolar>
-34.0297

> <Gold.PLP.part.repulsive>
0.2117

> <Gold.PLP.ligand.clash>
0.3270

> <Gold.PLP.ligand.torsion>
1.0285

> <Gold.PLP.Chemscore.Hbond>
1.7454

> <Gold.PLP.Chemscore.CHOScore>
0.0000

> <Gold.PLP.Chemscore.Metal>
0.0000

> <Gold.Chemscore.Hbonds>
donor molecule, donor type, donor heavy atom, donor atom, acceptor molecule, acceptor atom, score
      P1  H  2305  2313       L1    10  1.00
      P1  H  3712  3721       L1     9  0.75

> <Gold.PLP.Chemscore.Internal.Correction>
1.3553

