#       Name:                EN300-14823_i001
#       Creating user name   fsindt
#       Creation time:       Thu Mar  2 02:47:23 2023


#       File generated by GOLD software.
#

@<TRIPOS>MOLECULE
EN300-14823_i001|acide_1|mol2|11555|dock17
    28    28     1
SMALL
USER_CHARGES


@<TRIPOS>ATOM
      1 C1           1.3630 -13.8076   7.1065 C.3            1 <1>                0.0000
      2 O2           1.6972 -14.2910   8.4091 O.3            1 <1>                0.0000
      3 C3           0.8414 -13.9843   9.4193 C.ar           1 <1>                0.0000
      4 C4           0.0416 -12.8537   9.3325 C.ar           1 <1>                0.0000
      5 C5          -0.8288 -12.5412  10.3592 C.ar           1 <1>                0.0000
      6 C6          -1.6963 -11.3127  10.2624 C.3            1 <1>                0.0000
      7 C7          -3.1576 -11.7006  10.4971 C.3            1 <1>                0.0000
      8 C8          -4.0572 -10.6166   9.9616 C.2            1 <1>                0.0000
      9 O9          -3.5818  -9.5552   9.5958 O.co2          1 <1>                0.0000
     10 O10         -5.2605 -10.8011   9.8941 O.co2          1 <1>               -1.0000
     11 C11         -0.9053 -13.3535  11.4744 C.ar           1 <1>                0.0000
     12 C12         -0.1075 -14.4853  11.5658 C.ar           1 <1>                0.0000
     13 O13         -0.1835 -15.2840  12.6627 O.3            1 <1>                0.0000
     14 C14          1.0010 -15.9925  13.0326 C.3            1 <1>                0.0000
     15 C15          0.7628 -14.8037  10.5347 C.ar           1 <1>                0.0000
     16 H16          2.1268 -14.1221   6.3953 H              1 <1>                0.0000
     17 H17          0.3971 -14.2131   6.8052 H              1 <1>                0.0000
     18 H18          1.3102 -12.7190   7.1254 H              1 <1>                0.0000
     19 H19          0.0996 -12.2172   8.4619 H              1 <1>                0.0000
     20 H20         -1.3869 -10.5890  11.0166 H              1 <1>                0.0000
     21 H21         -1.5922 -10.8716   9.2712 H              1 <1>                0.0000
     22 H22         -3.3719 -12.6375   9.9829 H              1 <1>                0.0000
     23 H23         -3.3337 -11.8241  11.5656 H              1 <1>                0.0000
     24 H24         -1.5864 -13.1072  12.2756 H              1 <1>                0.0000
     25 H25          0.8036 -16.5910  13.9220 H              1 <1>                0.0000
     26 H26          1.3038 -16.6463  12.2146 H              1 <1>                0.0000
     27 H27          1.7992 -15.2808  13.2434 H              1 <1>                0.0000
     28 H28          1.3844 -15.6841  10.6040 H              1 <1>                0.0000
@<TRIPOS>BOND
    1    1    2 1     
    2    1   16 1     
    3    1   17 1     
    4    1   18 1     
    5    2    3 1     
    6    3    4 ar    
    7    3   15 ar    
    8    4    5 ar    
    9    4   19 1     
   10    5    6 1     
   11    5   11 ar    
   12    6    7 1     
   13    6   20 1     
   14    6   21 1     
   15    7    8 1     
   16    7   22 1     
   17    7   23 1     
   18    8    9 ar    
   19    8   10 ar    
   20   11   12 ar    
   21   11   24 1     
   22   12   13 1     
   23   12   15 ar    
   24   13   14 1     
   25   14   25 1     
   26   14   26 1     
   27   14   27 1     
   28   15   28 1     
@<TRIPOS>SUBSTRUCTURE
      1 ****           1
@<TRIPOS>COMMENT
> <Gold.Version>
2022.2.0

> <Gold.Id.Protein>
3pbl|protein|mol2

> <Gold.Protein.RotatedTorsions>
[ 1303 1298 1297 1294 ] final  157.37 input  179.99 | X-H torsion
[ 2461 2456 2455 2452 ] final    2.29 input   30.03 | X-H torsion
[ 2515 2510 2509 2506 ] final -167.46 input  -89.99 | X-H torsion
[ 3721 3712 3711 3710 ] final   36.51 input -179.91 | X-H torsion
[ 3841 3832 3831 3830 ] final   -8.34 input -179.91 | X-H torsion
[ 3767 3762 3761 3758 ] final -105.51 input  -89.99 | X-H torsion
[ 2472 2467 2466 2463 ] final -109.38 input  -89.97 | X-H torsion

> <Gold.Protein.ActiveResidues>
 VAL82   VAL86   LEU89   PHE106  VAL107  ASP110  VAL111  MET112  CYS114  THR115 
 CYS181  SER182  ILE183  PHE188  VAL189  ILE190  SER192  SER193  SER196  TRP342 
 PHE345  PHE346  HIS349  VAL350  TYR365  THR369  GLY372  TYR373 

> <Gold.Protein.RotatedAtoms>
    4.9116   -9.2005    4.8466 H   0  0  0  0  0  0  0  0  0  0  0  0  # atno 1303 bound_to 1298
    1.0768   -7.9765    7.0315 H   0  0  0  0  0  0  0  0  0  0  0  0  # atno 2461 bound_to 2456
   -4.3304   -5.4169    9.4117 H   0  0  0  0  0  0  0  0  0  0  0  0  # atno 2472 bound_to 2467
    2.4107   -9.1503    5.6940 H   0  0  0  0  0  0  0  0  0  0  0  0  # atno 2515 bound_to 2510
   -2.4971  -18.0224   13.7038 H   0  0  0  0  0  0  0  0  0  0  0  0  # atno 3721 bound_to 3712
   -5.0418  -21.9210   11.3889 H   0  0  0  0  0  0  0  0  0  0  0  0  # atno 3767 bound_to 3762
    1.6714  -20.3896    9.5121 H   0  0  0  0  0  0  0  0  0  0  0  0  # atno 3841 bound_to 3832
    3.7156  -10.2238    4.4120 LP  0  0  0  0  0  0  0  0  0  0  0  0  # atno 4297 bound_to 1298
    3.7347   -8.6971    3.8328 LP  0  0  0  0  0  0  0  0  0  0  0  0  # atno 4298 bound_to 1298
    0.5514   -9.1584    8.0287 LP  0  0  0  0  0  0  0  0  0  0  0  0  # atno 4299 bound_to 2456
    2.1095   -8.6731    8.0878 LP  0  0  0  0  0  0  0  0  0  0  0  0  # atno 4300 bound_to 2456
    2.0939   -7.5500    5.6267 LP  0  0  0  0  0  0  0  0  0  0  0  0  # atno 4301 bound_to 2510
    2.7921   -8.2985    4.3543 LP  0  0  0  0  0  0  0  0  0  0  0  0  # atno 4302 bound_to 2510
   -3.1796  -17.0855   14.8149 LP  0  0  0  0  0  0  0  0  0  0  0  0  # atno 4306 bound_to 3712
   -3.4651  -16.8336   13.2269 LP  0  0  0  0  0  0  0  0  0  0  0  0  # atno 4307 bound_to 3712
    2.2708  -19.6866    8.1996 LP  0  0  0  0  0  0  0  0  0  0  0  0  # atno 4314 bound_to 3832
    3.0278  -20.9656    8.8761 LP  0  0  0  0  0  0  0  0  0  0  0  0  # atno 4315 bound_to 3832
   -3.9108  -23.0633   11.1009 LP  0  0  0  0  0  0  0  0  0  0  0  0  # atno 4318 bound_to 3762
   -5.1748  -22.8905   10.0815 LP  0  0  0  0  0  0  0  0  0  0  0  0  # atno 4319 bound_to 3762
   -5.4779   -5.1361    8.2844 LP  0  0  0  0  0  0  0  0  0  0  0  0  # atno 4320 bound_to 2467
   -3.9086   -4.8405    7.9432 LP  0  0  0  0  0  0  0  0  0  0  0  0  # atno 4321 bound_to 2467

> <Gold.Score>
     Score     S(PLP)   S(hbond)     S(cho)   S(metal)  DE(clash)   DE(tors)     intcor
     47.37     -47.91       0.00       0.00       0.00       0.00       0.95       1.36

> <Gold.PLP.Fitness>
47.3698

> <Gold.PLP.PLP>
-47.9077

> <Gold.PLP.part.hbond>
0.0000

> <Gold.PLP.part.metal>
0.0000

> <Gold.PLP.part.buried>
-6.8739

> <Gold.PLP.part.nonpolar>
-42.5248

> <Gold.PLP.part.repulsive>
0.4834

> <Gold.PLP.ligand.clash>
0.0000

> <Gold.PLP.ligand.torsion>
0.9466

> <Gold.PLP.Chemscore.Hbond>
0.0000

> <Gold.PLP.Chemscore.CHOScore>
0.0000

> <Gold.PLP.Chemscore.Metal>
0.0000

> <Gold.PLP.Chemscore.Internal.Correction>
1.3553

