#       Name:                EN300-14823_i001
#       Creating user name   fsindt
#       Creation time:       Thu Mar  2 02:47:16 2023


#       File generated by GOLD software.
#

@<TRIPOS>MOLECULE
EN300-14823_i001|acide_1|mol2|11555|dock6
    28    28     1
SMALL
USER_CHARGES


@<TRIPOS>ATOM
      1 C1           0.7972 -15.8688   7.2176 C.3            1 <1>                0.0000
      2 O2           0.9535 -14.4483   7.2131 O.3            1 <1>                0.0000
      3 C3           0.4176 -13.7653   8.2587 C.ar           1 <1>                0.0000
      4 C4           0.2034 -14.4068   9.4704 C.ar           1 <1>                0.0000
      5 C5          -0.3416 -13.7131  10.5339 C.ar           1 <1>                0.0000
      6 C6          -0.5732 -14.4122  11.8487 C.3            1 <1>                0.0000
      7 C7           0.2560 -15.6972  11.8960 C.3            1 <1>                0.0000
      8 C8           0.1052 -16.3427  13.2494 C.2            1 <1>                0.0000
      9 O9          -0.5212 -17.3825  13.3625 O.co2          1 <1>                0.0000
     10 O10          0.6096 -15.8250  14.2313 O.co2          1 <1>               -1.0000
     11 C11         -0.6741 -12.3792  10.3940 C.ar           1 <1>                0.0000
     12 C12         -0.4617 -11.7332   9.1842 C.ar           1 <1>                0.0000
     13 O13         -0.7886 -10.4212   9.0474 O.3            1 <1>                0.0000
     14 C14         -1.8123  -9.9148   9.9062 C.3            1 <1>                0.0000
     15 C15          0.0897 -12.4258   8.1173 C.ar           1 <1>                0.0000
     16 H16          1.2695 -16.2890   6.3298 H              1 <1>                0.0000
     17 H17          1.2668 -16.2831   8.1097 H              1 <1>                0.0000
     18 H18         -0.2641 -16.1174   7.2169 H              1 <1>                0.0000
     19 H19          0.4624 -15.4493   9.5822 H              1 <1>                0.0000
     20 H20         -0.2742 -13.7565  12.6665 H              1 <1>                0.0000
     21 H21         -1.6304 -14.6582  11.9481 H              1 <1>                0.0000
     22 H22         -0.0937 -16.3838  11.1251 H              1 <1>                0.0000
     23 H23          1.3053 -15.4592  11.7218 H              1 <1>                0.0000
     24 H24         -1.0998 -11.8391  11.2267 H              1 <1>                0.0000
     25 H25         -1.9749  -8.8581   9.6937 H              1 <1>                0.0000
     26 H26         -2.7366 -10.4664   9.7342 H              1 <1>                0.0000
     27 H27         -1.5063 -10.0335  10.9455 H              1 <1>                0.0000
     28 H28          0.2558 -11.9248   7.1751 H              1 <1>                0.0000
@<TRIPOS>BOND
    1    1    2 1     
    2    1   16 1     
    3    1   17 1     
    4    1   18 1     
    5    2    3 1     
    6    3    4 ar    
    7    3   15 ar    
    8    4    5 ar    
    9    4   19 1     
   10    5    6 1     
   11    5   11 ar    
   12    6    7 1     
   13    6   20 1     
   14    6   21 1     
   15    7    8 1     
   16    7   22 1     
   17    7   23 1     
   18    8    9 ar    
   19    8   10 ar    
   20   11   12 ar    
   21   11   24 1     
   22   12   13 1     
   23   12   15 ar    
   24   13   14 1     
   25   14   25 1     
   26   14   26 1     
   27   14   27 1     
   28   15   28 1     
@<TRIPOS>SUBSTRUCTURE
      1 ****           1
@<TRIPOS>COMMENT
> <Gold.Version>
2022.2.0

> <Gold.Id.Protein>
3pbl|protein|mol2

> <Gold.Protein.RotatedTorsions>
[ 1303 1298 1297 1294 ] final   36.71 input  179.99 | X-H torsion
[ 2461 2456 2455 2452 ] final -125.33 input   30.03 | X-H torsion
[ 2515 2510 2509 2506 ] final  -21.53 input  -89.99 | X-H torsion
[ 3721 3712 3711 3710 ] final   38.35 input -179.91 | X-H torsion
[ 3841 3832 3831 3830 ] final   76.87 input -179.91 | X-H torsion
[ 3767 3762 3761 3758 ] final   30.52 input  -89.99 | X-H torsion
[ 2472 2467 2466 2463 ] final -160.55 input  -89.97 | X-H torsion

> <Gold.Protein.ActiveResidues>
 VAL82   VAL86   LEU89   PHE106  VAL107  ASP110  VAL111  MET112  CYS114  THR115 
 CYS181  SER182  ILE183  PHE188  VAL189  ILE190  SER192  SER193  SER196  TRP342 
 PHE345  PHE346  HIS349  VAL350  TYR365  THR369  GLY372  TYR373 

> <Gold.Protein.RotatedAtoms>
    3.7077  -10.2200    4.4056 H   0  0  0  0  0  0  0  0  0  0  0  0  # atno 1303 bound_to 1298
    0.6365   -9.2070    8.1070 H   0  0  0  0  0  0  0  0  0  0  0  0  # atno 2461 bound_to 2456
   -5.1264   -5.4435    9.2423 H   0  0  0  0  0  0  0  0  0  0  0  0  # atno 2472 bound_to 2467
    2.6760   -7.8981    4.4253 H   0  0  0  0  0  0  0  0  0  0  0  0  # atno 2515 bound_to 2510
   -2.5022  -18.0177   13.6768 H   0  0  0  0  0  0  0  0  0  0  0  0  # atno 3721 bound_to 3712
   -4.9760  -23.0619   10.0651 H   0  0  0  0  0  0  0  0  0  0  0  0  # atno 3767 bound_to 3762
    2.6907  -20.9542    9.3864 H   0  0  0  0  0  0  0  0  0  0  0  0  # atno 3841 bound_to 3832
    3.7428   -8.6902    3.8358 LP  0  0  0  0  0  0  0  0  0  0  0  0  # atno 4297 bound_to 1298
    4.9119   -9.2108    4.8502 LP  0  0  0  0  0  0  0  0  0  0  0  0  # atno 4298 bound_to 1298
    2.1421   -8.5819    8.0081 LP  0  0  0  0  0  0  0  0  0  0  0  0  # atno 4299 bound_to 2456
    0.9590   -8.0194    7.0332 LP  0  0  0  0  0  0  0  0  0  0  0  0  # atno 4300 bound_to 2456
    2.5890   -9.2573    5.3257 LP  0  0  0  0  0  0  0  0  0  0  0  0  # atno 4301 bound_to 2510
    2.0316   -7.8440    5.9246 LP  0  0  0  0  0  0  0  0  0  0  0  0  # atno 4302 bound_to 2510
   -3.1643  -17.1107   14.8243 LP  0  0  0  0  0  0  0  0  0  0  0  0  # atno 4306 bound_to 3712
   -3.4745  -16.8139   13.2487 LP  0  0  0  0  0  0  0  0  0  0  0  0  # atno 4307 bound_to 3712
    1.3937  -20.0606    9.0776 LP  0  0  0  0  0  0  0  0  0  0  0  0  # atno 4314 bound_to 3832
    2.7275  -19.9395    8.1433 LP  0  0  0  0  0  0  0  0  0  0  0  0  # atno 4315 bound_to 3832
   -5.2308  -21.9215   11.2059 LP  0  0  0  0  0  0  0  0  0  0  0  0  # atno 4318 bound_to 3762
   -3.9207  -22.8919   11.2998 LP  0  0  0  0  0  0  0  0  0  0  0  0  # atno 4319 bound_to 3762
   -4.9505   -4.8753    7.7216 LP  0  0  0  0  0  0  0  0  0  0  0  0  # atno 4320 bound_to 2467
   -3.6401   -5.0749    8.6754 LP  0  0  0  0  0  0  0  0  0  0  0  0  # atno 4321 bound_to 2467

> <Gold.Score>
     Score     S(PLP)   S(hbond)     S(cho)   S(metal)  DE(clash)   DE(tors)     intcor
     53.83     -46.67       2.65       0.00       0.00       0.07       1.04       1.36

> <Gold.PLP.Fitness>
53.8327

> <Gold.PLP.PLP>
-46.6698

> <Gold.PLP.part.hbond>
-3.0000

> <Gold.PLP.part.metal>
0.0000

> <Gold.PLP.part.buried>
-6.5012

> <Gold.PLP.part.nonpolar>
-37.8898

> <Gold.PLP.part.repulsive>
0.1867

> <Gold.PLP.ligand.clash>
0.0718

> <Gold.PLP.ligand.torsion>
1.0357

> <Gold.PLP.Chemscore.Hbond>
2.6503

> <Gold.PLP.Chemscore.CHOScore>
0.0000

> <Gold.PLP.Chemscore.Metal>
0.0000

> <Gold.Chemscore.Hbonds>
donor molecule, donor type, donor heavy atom, donor atom, acceptor molecule, acceptor atom, score
      P1  H  2456  2461       L1    13  1.00
      P1  H  2305  2313       L1    10  1.00
      P1  H  3712  3721       L1     9  0.65

> <Gold.PLP.Chemscore.Internal.Correction>
1.3553

