#       Name:                EN300-14823_i001
#       Creating user name   fsindt
#       Creation time:       Thu Mar  2 02:47:13 2023


#       File generated by GOLD software.
#

@<TRIPOS>MOLECULE
EN300-14823_i001|acide_1|mol2|11555|dock2
    28    28     1
SMALL
USER_CHARGES


@<TRIPOS>ATOM
      1 C1          -3.8084  -9.9821   9.9144 C.3            1 <1>                0.0000
      2 O2          -3.0558 -10.7360  10.8670 O.3            1 <1>                0.0000
      3 C3          -1.9857 -11.4300  10.3977 C.ar           1 <1>                0.0000
      4 C4          -1.5844 -12.5984  11.0297 C.ar           1 <1>                0.0000
      5 C5          -0.4965 -13.3045  10.5532 C.ar           1 <1>                0.0000
      6 C6          -0.0629 -14.5731  11.2415 C.3            1 <1>                0.0000
      7 C7          -0.4211 -14.4954  12.7269 C.3            1 <1>                0.0000
      8 C8          -0.2781 -15.8601  13.3501 C.2            1 <1>                0.0000
      9 O9          -0.8325 -16.8217  12.8458 O.co2          1 <1>                0.0000
     10 O10          0.3919 -16.0025  14.3588 O.co2          1 <1>               -1.0000
     11 C11          0.1943 -12.8496   9.4463 C.ar           1 <1>                0.0000
     12 C12         -0.2031 -11.6816   8.8108 C.ar           1 <1>                0.0000
     13 O13          0.4765 -11.2349   7.7220 O.3            1 <1>                0.0000
     14 C14          1.1209 -12.2191   6.9108 C.3            1 <1>                0.0000
     15 C15         -1.2975 -10.9742   9.2839 C.ar           1 <1>                0.0000
     16 H16         -4.6321  -9.4777  10.4195 H              1 <1>                0.0000
     17 H17         -3.1617  -9.2409   9.4449 H              1 <1>                0.0000
     18 H18         -4.2055 -10.6527   9.1524 H              1 <1>                0.0000
     19 H19         -2.1228 -12.9560  11.8950 H              1 <1>                0.0000
     20 H20         -0.5719 -15.4242  10.7890 H              1 <1>                0.0000
     21 H21          1.0149 -14.6949  11.1335 H              1 <1>                0.0000
     22 H22          0.2494 -13.7960  13.2263 H              1 <1>                0.0000
     23 H23         -1.4500 -14.1524  12.8352 H              1 <1>                0.0000
     24 H24          1.0443 -13.4032   9.0757 H              1 <1>                0.0000
     25 H25          1.6254 -11.7296   6.0777 H              1 <1>                0.0000
     26 H26          1.8520 -12.7618   7.5100 H              1 <1>                0.0000
     27 H27          0.3770 -12.9165   6.5259 H              1 <1>                0.0000
     28 H28         -1.6083 -10.0651   8.7907 H              1 <1>                0.0000
@<TRIPOS>BOND
    1    1    2 1     
    2    1   16 1     
    3    1   17 1     
    4    1   18 1     
    5    2    3 1     
    6    3    4 ar    
    7    3   15 ar    
    8    4    5 ar    
    9    4   19 1     
   10    5    6 1     
   11    5   11 ar    
   12    6    7 1     
   13    6   20 1     
   14    6   21 1     
   15    7    8 1     
   16    7   22 1     
   17    7   23 1     
   18    8    9 ar    
   19    8   10 ar    
   20   11   12 ar    
   21   11   24 1     
   22   12   13 1     
   23   12   15 ar    
   24   13   14 1     
   25   14   25 1     
   26   14   26 1     
   27   14   27 1     
   28   15   28 1     
@<TRIPOS>SUBSTRUCTURE
      1 ****           1
@<TRIPOS>COMMENT
> <Gold.Version>
2022.2.0

> <Gold.Id.Protein>
3pbl|protein|mol2

> <Gold.Protein.RotatedTorsions>
[ 1303 1298 1297 1294 ] final  -27.83 input  179.99 | X-H torsion
[ 2461 2456 2455 2452 ] final -134.16 input   30.03 | X-H torsion
[ 2515 2510 2509 2506 ] final  -72.34 input  -89.99 | X-H torsion
[ 3721 3712 3711 3710 ] final   90.12 input -179.91 | X-H torsion
[ 3841 3832 3831 3830 ] final  -32.69 input -179.91 | X-H torsion
[ 3767 3762 3761 3758 ] final  -95.11 input  -89.99 | X-H torsion
[ 2472 2467 2466 2463 ] final -107.25 input  -89.97 | X-H torsion

> <Gold.Protein.ActiveResidues>
 VAL82   VAL86   LEU89   PHE106  VAL107  ASP110  VAL111  MET112  CYS114  THR115 
 CYS181  SER182  ILE183  PHE188  VAL189  ILE190  SER192  SER193  SER196  TRP342 
 PHE345  PHE346  HIS349  VAL350  TYR365  THR369  GLY372  TYR373 

> <Gold.Protein.RotatedAtoms>
    3.3338   -9.4662    3.8533 H   0  0  0  0  0  0  0  0  0  0  0  0  # atno 1303 bound_to 1298
    0.7486   -9.2497    8.1888 H   0  0  0  0  0  0  0  0  0  0  0  0  # atno 2461 bound_to 2456
   -4.2969   -5.4104    9.4037 H   0  0  0  0  0  0  0  0  0  0  0  0  # atno 2472 bound_to 2467
    2.8356   -8.6904    4.4519 H   0  0  0  0  0  0  0  0  0  0  0  0  # atno 2515 bound_to 2510
   -2.7847  -17.6137   13.1033 H   0  0  0  0  0  0  0  0  0  0  0  0  # atno 3721 bound_to 3712
   -5.1681  -21.9146   11.2739 H   0  0  0  0  0  0  0  0  0  0  0  0  # atno 3767 bound_to 3762
    1.5661  -20.0993    9.3173 H   0  0  0  0  0  0  0  0  0  0  0  0  # atno 3841 bound_to 3832
    4.5860   -8.5537    4.3687 LP  0  0  0  0  0  0  0  0  0  0  0  0  # atno 4297 bound_to 1298
    4.4427  -10.1013    4.8697 LP  0  0  0  0  0  0  0  0  0  0  0  0  # atno 4298 bound_to 1298
    2.1601   -8.4769    7.9095 LP  0  0  0  0  0  0  0  0  0  0  0  0  # atno 4299 bound_to 2456
    0.8290   -8.0817    7.0500 LP  0  0  0  0  0  0  0  0  0  0  0  0  # atno 4300 bound_to 2456
    2.2430   -8.8929    5.9597 LP  0  0  0  0  0  0  0  0  0  0  0  0  # atno 4301 bound_to 2510
    2.2180   -7.4157    5.2640 LP  0  0  0  0  0  0  0  0  0  0  0  0  # atno 4302 bound_to 2510
   -2.7626  -17.8320   14.6938 LP  0  0  0  0  0  0  0  0  0  0  0  0  # atno 4306 bound_to 3712
   -3.5501  -16.5590   14.0412 LP  0  0  0  0  0  0  0  0  0  0  0  0  # atno 4307 bound_to 3712
    2.6282  -19.8640    8.1372 LP  0  0  0  0  0  0  0  0  0  0  0  0  # atno 4314 bound_to 3832
    2.7922  -21.1236    9.1635 LP  0  0  0  0  0  0  0  0  0  0  0  0  # atno 4315 bound_to 3832
   -3.9101  -22.9551   11.2331 LP  0  0  0  0  0  0  0  0  0  0  0  0  # atno 4318 bound_to 3762
   -5.0493  -23.0051   10.0642 LP  0  0  0  0  0  0  0  0  0  0  0  0  # atno 4319 bound_to 3762
   -5.4863   -5.1485    8.3161 LP  0  0  0  0  0  0  0  0  0  0  0  0  # atno 4320 bound_to 2467
   -3.9336   -4.8347    7.9195 LP  0  0  0  0  0  0  0  0  0  0  0  0  # atno 4321 bound_to 2467

> <Gold.Score>
     Score     S(PLP)   S(hbond)     S(cho)   S(metal)  DE(clash)   DE(tors)     intcor
     56.56     -50.28       2.44       0.00       0.00       0.00       1.22       1.39

> <Gold.PLP.Fitness>
56.5565

> <Gold.PLP.PLP>
-50.2816

> <Gold.PLP.part.hbond>
-3.0000

> <Gold.PLP.part.metal>
0.0000

> <Gold.PLP.part.buried>
-6.7252

> <Gold.PLP.part.nonpolar>
-41.2926

> <Gold.PLP.part.repulsive>
0.1587

> <Gold.PLP.ligand.clash>
0.0000

> <Gold.PLP.ligand.torsion>
1.2233

> <Gold.PLP.Chemscore.Hbond>
2.4426

> <Gold.PLP.Chemscore.CHOScore>
0.0000

> <Gold.PLP.Chemscore.Metal>
0.0000

> <Gold.Chemscore.Hbonds>
donor molecule, donor type, donor heavy atom, donor atom, acceptor molecule, acceptor atom, score
      P1  H  2456  2461       L1    13  0.96
      P1  H  2305  2313       L1    10  1.00
      P1  H  3712  3721       L1     9  0.48

> <Gold.PLP.Chemscore.Internal.Correction>
1.3938

