#       Name:                EN300-14823_i001
#       Creating user name   fsindt
#       Creation time:       Thu Mar  2 02:47:20 2023


#       File generated by GOLD software.
#

@<TRIPOS>MOLECULE
EN300-14823_i001|acide_1|mol2|11555|dock13
    28    28     1
SMALL
USER_CHARGES


@<TRIPOS>ATOM
      1 C1           0.7365 -14.8336   7.7605 C.3            1 <1>                0.0000
      2 O2           0.6205 -13.4310   8.0084 O.3            1 <1>                0.0000
      3 C3          -0.0021 -13.0570   9.1570 C.ar           1 <1>                0.0000
      4 C4          -0.0503 -13.9282  10.2360 C.ar           1 <1>                0.0000
      5 C5          -0.6832 -13.5487  11.4042 C.ar           1 <1>                0.0000
      6 C6          -0.7342 -14.4967  12.5745 C.3            1 <1>                0.0000
      7 C7           0.3341 -15.5783  12.4015 C.3            1 <1>                0.0000
      8 C8           0.2579 -16.5482  13.5525 C.2            1 <1>                0.0000
      9 O9          -0.4170 -17.5588  13.4545 O.co2          1 <1>                0.0000
     10 O10          0.8712 -16.3221  14.5817 O.co2          1 <1>               -1.0000
     11 C11         -1.2691 -12.3010  11.5013 C.ar           1 <1>                0.0000
     12 C12         -1.2235 -11.4262  10.4249 C.ar           1 <1>                0.0000
     13 O13         -1.7996 -10.1990  10.5212 O.3            1 <1>                0.0000
     14 C14         -2.1890  -9.5677   9.2998 C.3            1 <1>                0.0000
     15 C15         -0.5846 -11.8027   9.2536 C.ar           1 <1>                0.0000
     16 H16          1.2519 -14.9937   6.8135 H              1 <1>                0.0000
     17 H17          1.3040 -15.2993   8.5662 H              1 <1>                0.0000
     18 H18         -0.2578 -15.2775   7.7127 H              1 <1>                0.0000
     19 H19          0.4069 -14.9039  10.1626 H              1 <1>                0.0000
     20 H20         -0.5478 -13.9461  13.4966 H              1 <1>                0.0000
     21 H21         -1.7185 -14.9626  12.6221 H              1 <1>                0.0000
     22 H22          0.1637 -16.1109  11.4658 H              1 <1>                0.0000
     23 H23          1.3204 -15.1150  12.3814 H              1 <1>                0.0000
     24 H24         -1.7632 -12.0066  12.4154 H              1 <1>                0.0000
     25 H25         -2.6342  -8.5971   9.5185 H              1 <1>                0.0000
     26 H26         -1.3129  -9.4311   8.6659 H              1 <1>                0.0000
     27 H27         -2.9171 -10.1933   8.7835 H              1 <1>                0.0000
     28 H28         -0.5480 -11.1233   8.4150 H              1 <1>                0.0000
@<TRIPOS>BOND
    1    1    2 1     
    2    1   16 1     
    3    1   17 1     
    4    1   18 1     
    5    2    3 1     
    6    3    4 ar    
    7    3   15 ar    
    8    4    5 ar    
    9    4   19 1     
   10    5    6 1     
   11    5   11 ar    
   12    6    7 1     
   13    6   20 1     
   14    6   21 1     
   15    7    8 1     
   16    7   22 1     
   17    7   23 1     
   18    8    9 ar    
   19    8   10 ar    
   20   11   12 ar    
   21   11   24 1     
   22   12   13 1     
   23   12   15 ar    
   24   13   14 1     
   25   14   25 1     
   26   14   26 1     
   27   14   27 1     
   28   15   28 1     
@<TRIPOS>SUBSTRUCTURE
      1 ****           1
@<TRIPOS>COMMENT
> <Gold.Version>
2022.2.0

> <Gold.Id.Protein>
3pbl|protein|mol2

> <Gold.Protein.RotatedTorsions>
[ 1303 1298 1297 1294 ] final   26.03 input  179.99 | X-H torsion
[ 2461 2456 2455 2452 ] final -118.33 input   30.03 | X-H torsion
[ 2515 2510 2509 2506 ] final  -95.58 input  -89.99 | X-H torsion
[ 3721 3712 3711 3710 ] final   36.44 input -179.91 | X-H torsion
[ 3841 3832 3831 3830 ] final  -89.84 input -179.91 | X-H torsion
[ 3767 3762 3761 3758 ] final   80.13 input  -89.99 | X-H torsion
[ 2472 2467 2466 2463 ] final  -50.61 input  -89.97 | X-H torsion

> <Gold.Protein.ActiveResidues>
 VAL82   VAL86   LEU89   PHE106  VAL107  ASP110  VAL111  MET112  CYS114  THR115 
 CYS181  SER182  ILE183  PHE188  VAL189  ILE190  SER192  SER193  SER196  TRP342 
 PHE345  PHE346  HIS349  VAL350  TYR365  THR369  GLY372  TYR373 

> <Gold.Protein.RotatedAtoms>
    3.5898  -10.1497    4.2964 H   0  0  0  0  0  0  0  0  0  0  0  0  # atno 1303 bound_to 1298
    0.5577   -9.1629    8.0354 H   0  0  0  0  0  0  0  0  0  0  0  0  # atno 2461 bound_to 2456
   -3.6721   -5.1336    8.8265 H   0  0  0  0  0  0  0  0  0  0  0  0  # atno 2472 bound_to 2467
    2.8086   -8.9977    4.6730 H   0  0  0  0  0  0  0  0  0  0  0  0  # atno 2515 bound_to 2510
   -2.4969  -18.0226   13.7049 H   0  0  0  0  0  0  0  0  0  0  0  0  # atno 3721 bound_to 3712
   -4.3058  -23.3347   10.3850 H   0  0  0  0  0  0  0  0  0  0  0  0  # atno 3767 bound_to 3762
    1.8505  -19.6157    8.7082 H   0  0  0  0  0  0  0  0  0  0  0  0  # atno 3841 bound_to 3832
    3.8782   -8.5941    3.8925 LP  0  0  0  0  0  0  0  0  0  0  0  0  # atno 4297 bound_to 1298
    4.8944   -9.3773    4.9027 LP  0  0  0  0  0  0  0  0  0  0  0  0  # atno 4298 bound_to 1298
    2.1127   -8.6657    8.0815 LP  0  0  0  0  0  0  0  0  0  0  0  0  # atno 4299 bound_to 2456
    1.0671   -7.9798    7.0313 LP  0  0  0  0  0  0  0  0  0  0  0  0  # atno 4300 bound_to 2456
    2.1176   -8.5571    6.0852 LP  0  0  0  0  0  0  0  0  0  0  0  0  # atno 4301 bound_to 2510
    2.3703   -7.4440    4.9173 LP  0  0  0  0  0  0  0  0  0  0  0  0  # atno 4302 bound_to 2510
   -3.1802  -17.0846   14.8145 LP  0  0  0  0  0  0  0  0  0  0  0  0  # atno 4306 bound_to 3712
   -3.4648  -16.8344   13.2261 LP  0  0  0  0  0  0  0  0  0  0  0  0  # atno 4307 bound_to 3712
    3.1204  -20.5655    8.4605 LP  0  0  0  0  0  0  0  0  0  0  0  0  # atno 4314 bound_to 3832
    1.9713  -20.9807    9.5439 LP  0  0  0  0  0  0  0  0  0  0  0  0  # atno 4315 bound_to 3832
   -5.5113  -22.2441   10.5405 LP  0  0  0  0  0  0  0  0  0  0  0  0  # atno 4318 bound_to 3762
   -4.3101  -22.2964   11.6454 LP  0  0  0  0  0  0  0  0  0  0  0  0  # atno 4319 bound_to 3762
   -5.2501   -5.4179    9.1357 LP  0  0  0  0  0  0  0  0  0  0  0  0  # atno 4320 bound_to 2467
   -4.7946   -4.8421    7.6770 LP  0  0  0  0  0  0  0  0  0  0  0  0  # atno 4321 bound_to 2467

> <Gold.Score>
     Score     S(PLP)   S(hbond)     S(cho)   S(metal)  DE(clash)   DE(tors)     intcor
     48.41     -44.64       1.67       0.00       0.00       0.02       1.29       1.36

> <Gold.PLP.Fitness>
48.4100

> <Gold.PLP.PLP>
-44.6378

> <Gold.PLP.part.hbond>
-2.0000

> <Gold.PLP.part.metal>
0.0000

> <Gold.PLP.part.buried>
-5.8625

> <Gold.PLP.part.nonpolar>
-37.7499

> <Gold.PLP.part.repulsive>
0.1334

> <Gold.PLP.ligand.clash>
0.0166

> <Gold.PLP.ligand.torsion>
1.2914

> <Gold.PLP.Chemscore.Hbond>
1.6721

> <Gold.PLP.Chemscore.CHOScore>
0.0000

> <Gold.PLP.Chemscore.Metal>
0.0000

> <Gold.Chemscore.Hbonds>
donor molecule, donor type, donor heavy atom, donor atom, acceptor molecule, acceptor atom, score
      P1  H  2305  2313       L1    10  1.00
      P1  H  3712  3721       L1     9  0.67

> <Gold.PLP.Chemscore.Internal.Correction>
1.3553

