#       Name:                EN300-14823_i001
#       Creating user name   fsindt
#       Creation time:       Thu Mar  2 02:47:21 2023


#       File generated by GOLD software.
#

@<TRIPOS>MOLECULE
EN300-14823_i001|acide_1|mol2|11555|dock14
    28    28     1
SMALL
USER_CHARGES


@<TRIPOS>ATOM
      1 C1          -0.3899 -15.7331  12.7703 C.3            1 <1>                0.0000
      2 O2           0.1232 -15.7150  11.4367 O.3            1 <1>                0.0000
      3 C3          -0.0547 -14.5723  10.7228 C.ar           1 <1>                0.0000
      4 C4          -0.6928 -13.4843  11.3014 C.ar           1 <1>                0.0000
      5 C5          -0.8741 -12.3222  10.5761 C.ar           1 <1>                0.0000
      6 C6          -1.5673 -11.1422  11.2069 C.3            1 <1>                0.0000
      7 C7          -2.1003 -10.2178  10.1102 C.3            1 <1>                0.0000
      8 C8          -3.5664 -10.4901   9.8925 C.2            1 <1>                0.0000
      9 O9          -3.9411 -11.6128   9.5997 O.co2          1 <1>                0.0000
     10 O10         -4.3779  -9.5877  10.0091 O.co2          1 <1>               -1.0000
     11 C11         -0.4203 -12.2402   9.2735 C.ar           1 <1>                0.0000
     12 C12          0.2183 -13.3256   8.6905 C.ar           1 <1>                0.0000
     13 O13          0.6647 -13.2442   7.4094 O.3            1 <1>                0.0000
     14 C14          1.0457 -11.9508   6.9363 C.3            1 <1>                0.0000
     15 C15          0.4060 -14.4908   9.4178 C.ar           1 <1>                0.0000
     16 H16         -0.1815 -16.7008  13.2266 H              1 <1>                0.0000
     17 H17          0.0872 -14.9458  13.3540 H              1 <1>                0.0000
     18 H18         -1.4669 -15.5666  12.7475 H              1 <1>                0.0000
     19 H19         -1.0483 -13.5460  12.3194 H              1 <1>                0.0000
     20 H20         -2.3967 -11.4935  11.8208 H              1 <1>                0.0000
     21 H21         -0.8597 -10.5957  11.8304 H              1 <1>                0.0000
     22 H22         -1.9646  -9.1794  10.4126 H              1 <1>                0.0000
     23 H23         -1.5552 -10.4007   9.1843 H              1 <1>                0.0000
     24 H24         -0.5632 -11.3309   8.7087 H              1 <1>                0.0000
     25 H25          1.3818 -12.0267   5.9021 H              1 <1>                0.0000
     26 H26          0.1906 -11.2771   6.9919 H              1 <1>                0.0000
     27 H27          1.8554 -11.5620   7.5538 H              1 <1>                0.0000
     28 H28          0.9029 -15.3365   8.9658 H              1 <1>                0.0000
@<TRIPOS>BOND
    1    1    2 1     
    2    1   16 1     
    3    1   17 1     
    4    1   18 1     
    5    2    3 1     
    6    3    4 ar    
    7    3   15 ar    
    8    4    5 ar    
    9    4   19 1     
   10    5    6 1     
   11    5   11 ar    
   12    6    7 1     
   13    6   20 1     
   14    6   21 1     
   15    7    8 1     
   16    7   22 1     
   17    7   23 1     
   18    8    9 ar    
   19    8   10 ar    
   20   11   12 ar    
   21   11   24 1     
   22   12   13 1     
   23   12   15 ar    
   24   13   14 1     
   25   14   25 1     
   26   14   26 1     
   27   14   27 1     
   28   15   28 1     
@<TRIPOS>SUBSTRUCTURE
      1 ****           1
@<TRIPOS>COMMENT
> <Gold.Version>
2022.2.0

> <Gold.Id.Protein>
3pbl|protein|mol2

> <Gold.Protein.RotatedTorsions>
[ 1303 1298 1297 1294 ] final  -54.15 input  179.99 | X-H torsion
[ 2461 2456 2455 2452 ] final -167.49 input   30.03 | X-H torsion
[ 2515 2510 2509 2506 ] final   55.70 input  -89.99 | X-H torsion
[ 3721 3712 3711 3710 ] final  163.83 input -179.91 | X-H torsion
[ 3841 3832 3831 3830 ] final  148.86 input -179.91 | X-H torsion
[ 3767 3762 3761 3758 ] final  -23.44 input  -89.99 | X-H torsion
[ 2472 2467 2466 2463 ] final  166.30 input  -89.97 | X-H torsion

> <Gold.Protein.ActiveResidues>
 VAL82   VAL86   LEU89   PHE106  VAL107  ASP110  VAL111  MET112  CYS114  THR115 
 CYS181  SER182  ILE183  PHE188  VAL189  ILE190  SER192  SER193  SER196  TRP342 
 PHE345  PHE346  HIS349  VAL350  TYR365  THR369  GLY372  TYR373 

> <Gold.Protein.RotatedAtoms>
    3.4520   -9.0605    3.7780 H   0  0  0  0  0  0  0  0  0  0  0  0  # atno 1303 bound_to 1298
    1.2528   -9.2687    8.3838 H   0  0  0  0  0  0  0  0  0  0  0  0  # atno 2461 bound_to 2456
   -5.4499   -5.3297    8.8280 H   0  0  0  0  0  0  0  0  0  0  0  0  # atno 2472 bound_to 2467
    2.1724   -7.4414    5.3855 H   0  0  0  0  0  0  0  0  0  0  0  0  # atno 2515 bound_to 2510
   -3.2717  -16.7270   13.3403 H   0  0  0  0  0  0  0  0  0  0  0  0  # atno 3721 bound_to 3712
   -5.4777  -22.4287   10.3472 H   0  0  0  0  0  0  0  0  0  0  0  0  # atno 3767 bound_to 3762
    3.1259  -20.4193    8.6380 H   0  0  0  0  0  0  0  0  0  0  0  0  # atno 3841 bound_to 3832
    4.8216   -8.8014    4.6286 LP  0  0  0  0  0  0  0  0  0  0  0  0  # atno 4297 bound_to 1298
    4.0888  -10.2596    4.6852 LP  0  0  0  0  0  0  0  0  0  0  0  0  # atno 4298 bound_to 1298
    2.0352   -8.1272    7.5165 LP  0  0  0  0  0  0  0  0  0  0  0  0  # atno 4299 bound_to 2456
    0.4498   -8.4125    7.2481 LP  0  0  0  0  0  0  0  0  0  0  0  0  # atno 4300 bound_to 2456
    2.8296   -8.5677    4.4029 LP  0  0  0  0  0  0  0  0  0  0  0  0  # atno 4301 bound_to 2510
    2.2948   -8.9904    5.8868 LP  0  0  0  0  0  0  0  0  0  0  0  0  # atno 4302 bound_to 2510
   -2.6565  -18.1859   13.6064 LP  0  0  0  0  0  0  0  0  0  0  0  0  # atno 4306 bound_to 3712
   -3.0939  -17.2287   14.8550 LP  0  0  0  0  0  0  0  0  0  0  0  0  # atno 4307 bound_to 3712
    1.9111  -20.9428    9.5472 LP  0  0  0  0  0  0  0  0  0  0  0  0  # atno 4314 bound_to 3832
    1.7073  -19.6751    8.5383 LP  0  0  0  0  0  0  0  0  0  0  0  0  # atno 4315 bound_to 3832
   -4.5233  -22.1316   11.6386 LP  0  0  0  0  0  0  0  0  0  0  0  0  # atno 4318 bound_to 3762
   -4.1266  -23.3146   10.5851 LP  0  0  0  0  0  0  0  0  0  0  0  0  # atno 4319 bound_to 3762
   -4.4198   -4.8007    7.6767 LP  0  0  0  0  0  0  0  0  0  0  0  0  # atno 4320 bound_to 2467
   -3.8474   -5.2631    9.1345 LP  0  0  0  0  0  0  0  0  0  0  0  0  # atno 4321 bound_to 2467

> <Gold.Score>
     Score     S(PLP)   S(hbond)     S(cho)   S(metal)  DE(clash)   DE(tors)     intcor
     48.06     -50.29       0.00       0.00       0.00       1.69       0.95       1.36

> <Gold.PLP.Fitness>
48.0588

> <Gold.PLP.PLP>
-50.2911

> <Gold.PLP.part.hbond>
0.0000

> <Gold.PLP.part.metal>
0.0000

> <Gold.PLP.part.buried>
-6.6465

> <Gold.PLP.part.nonpolar>
-44.1926

> <Gold.PLP.part.repulsive>
0.2847

> <Gold.PLP.ligand.clash>
1.6921

> <Gold.PLP.ligand.torsion>
0.9477

> <Gold.PLP.Chemscore.Hbond>
0.0000

> <Gold.PLP.Chemscore.CHOScore>
0.0000

> <Gold.PLP.Chemscore.Metal>
0.0000

> <Gold.PLP.Chemscore.Internal.Correction>
1.3553

