#       Name:                EN300-14823_i001
#       Creating user name   fsindt
#       Creation time:       Thu Mar  2 02:47:17 2023


#       File generated by GOLD software.
#

@<TRIPOS>MOLECULE
EN300-14823_i001|acide_1|mol2|11555|dock9
    28    28     1
SMALL
USER_CHARGES


@<TRIPOS>ATOM
      1 C1           0.9201 -14.7214   7.4080 C.3            1 <1>                0.0000
      2 O2           0.7403 -13.3679   7.8297 O.3            1 <1>                0.0000
      3 C3           0.1347 -13.1711   9.0303 C.ar           1 <1>                0.0000
      4 C4          -0.5626 -11.9959   9.2719 C.ar           1 <1>                0.0000
      5 C5          -1.1785 -11.7950  10.4924 C.ar           1 <1>                0.0000
      6 C6          -1.9351 -10.5178  10.7521 C.3            1 <1>                0.0000
      7 C7          -2.9015 -10.2534   9.5958 C.3            1 <1>                0.0000
      8 C8          -4.2658 -10.7872   9.9493 C.2            1 <1>                0.0000
      9 O9          -4.7518 -11.6968   9.2991 O.co2          1 <1>                0.0000
     10 O10         -4.8835 -10.3093  10.8855 O.co2          1 <1>               -1.0000
     11 C11         -1.1023 -12.7635  11.4750 C.ar           1 <1>                0.0000
     12 C12         -0.4062 -13.9405  11.2382 C.ar           1 <1>                0.0000
     13 O13         -0.3319 -14.8928  12.2048 O.3            1 <1>                0.0000
     14 C14         -0.1000 -16.2360  11.7757 C.3            1 <1>                0.0000
     15 C15          0.2083 -14.1465  10.0126 C.ar           1 <1>                0.0000
     16 H16          1.4138 -14.7366   6.4364 H              1 <1>                0.0000
     17 H17          1.5348 -15.2503   8.1363 H              1 <1>                0.0000
     18 H18         -0.0514 -15.2096   7.3296 H              1 <1>                0.0000
     19 H19         -0.6236 -11.2374   8.5055 H              1 <1>                0.0000
     20 H20         -2.4973 -10.6111  11.6813 H              1 <1>                0.0000
     21 H21         -1.2318  -9.6892  10.8345 H              1 <1>                0.0000
     22 H22         -2.9668  -9.1805   9.4150 H              1 <1>                0.0000
     23 H23         -2.5379 -10.7517   8.6972 H              1 <1>                0.0000
     24 H24         -1.5846 -12.6043  12.4281 H              1 <1>                0.0000
     25 H25         -0.0631 -16.8936  12.6442 H              1 <1>                0.0000
     26 H26         -0.9081 -16.5512  11.1155 H              1 <1>                0.0000
     27 H27          0.8479 -16.2878  11.2401 H              1 <1>                0.0000
     28 H28          0.7504 -15.0618   9.8265 H              1 <1>                0.0000
@<TRIPOS>BOND
    1    1    2 1     
    2    1   16 1     
    3    1   17 1     
    4    1   18 1     
    5    2    3 1     
    6    3    4 ar    
    7    3   15 ar    
    8    4    5 ar    
    9    4   19 1     
   10    5    6 1     
   11    5   11 ar    
   12    6    7 1     
   13    6   20 1     
   14    6   21 1     
   15    7    8 1     
   16    7   22 1     
   17    7   23 1     
   18    8    9 ar    
   19    8   10 ar    
   20   11   12 ar    
   21   11   24 1     
   22   12   13 1     
   23   12   15 ar    
   24   13   14 1     
   25   14   25 1     
   26   14   26 1     
   27   14   27 1     
   28   15   28 1     
@<TRIPOS>SUBSTRUCTURE
      1 ****           1
@<TRIPOS>COMMENT
> <Gold.Version>
2022.2.0

> <Gold.Id.Protein>
3pbl|protein|mol2

> <Gold.Protein.RotatedTorsions>
[ 1303 1298 1297 1294 ] final  -94.01 input  179.99 | X-H torsion
[ 2461 2456 2455 2452 ] final -114.60 input   30.03 | X-H torsion
[ 2515 2510 2509 2506 ] final  -27.65 input  -89.99 | X-H torsion
[ 3721 3712 3711 3710 ] final   17.33 input -179.91 | X-H torsion
[ 3841 3832 3831 3830 ] final    0.27 input -179.91 | X-H torsion
[ 3767 3762 3761 3758 ] final -161.70 input  -89.99 | X-H torsion
[ 2472 2467 2466 2463 ] final -134.11 input  -89.97 | X-H torsion

> <Gold.Protein.ActiveResidues>
 VAL82   VAL86   LEU89   PHE106  VAL107  ASP110  VAL111  MET112  CYS114  THR115 
 CYS181  SER182  ILE183  PHE188  VAL189  ILE190  SER192  SER193  SER196  TRP342 
 PHE345  PHE346  HIS349  VAL350  TYR365  THR369  GLY372  TYR373 

> <Gold.Protein.RotatedAtoms>
    3.8785   -8.5938    3.8933 H   0  0  0  0  0  0  0  0  0  0  0  0  # atno 1303 bound_to 1298
    0.5199   -9.1359    7.9953 H   0  0  0  0  0  0  0  0  0  0  0  0  # atno 2461 bound_to 2456
   -4.7315   -5.4622    9.4147 H   0  0  0  0  0  0  0  0  0  0  0  0  # atno 2472 bound_to 2467
    2.7089   -7.9876    4.3930 H   0  0  0  0  0  0  0  0  0  0  0  0  # atno 2515 bound_to 2510
   -2.4700  -18.0252   13.9911 H   0  0  0  0  0  0  0  0  0  0  0  0  # atno 3721 bound_to 3712
   -4.2877  -22.3161   11.6420 H   0  0  0  0  0  0  0  0  0  0  0  0  # atno 3767 bound_to 3762
    1.7391  -20.4898    9.5598 H   0  0  0  0  0  0  0  0  0  0  0  0  # atno 3841 bound_to 3832
    4.8943   -9.3781    4.9029 LP  0  0  0  0  0  0  0  0  0  0  0  0  # atno 4297 bound_to 1298
    3.5895  -10.1497    4.2956 LP  0  0  0  0  0  0  0  0  0  0  0  0  # atno 4298 bound_to 1298
    2.0918   -8.7099    8.1184 LP  0  0  0  0  0  0  0  0  0  0  0  0  # atno 4299 bound_to 2456
    1.1258   -7.9625    7.0345 LP  0  0  0  0  0  0  0  0  0  0  0  0  # atno 4300 bound_to 2456
    2.5484   -9.2487    5.4175 LP  0  0  0  0  0  0  0  0  0  0  0  0  # atno 4301 bound_to 2510
    2.0393   -7.7631    5.8651 LP  0  0  0  0  0  0  0  0  0  0  0  0  # atno 4302 bound_to 2510
   -3.3293  -16.8476   14.6640 LP  0  0  0  0  0  0  0  0  0  0  0  0  # atno 4306 bound_to 3712
   -3.3468  -17.0682   13.0461 LP  0  0  0  0  0  0  0  0  0  0  0  0  # atno 4307 bound_to 3712
    2.1405  -19.6530    8.2503 LP  0  0  0  0  0  0  0  0  0  0  0  0  # atno 4314 bound_to 3832
    3.0799  -20.8834    8.7703 LP  0  0  0  0  0  0  0  0  0  0  0  0  # atno 4315 bound_to 3832
   -4.3286  -23.3338   10.3654 LP  0  0  0  0  0  0  0  0  0  0  0  0  # atno 4318 bound_to 3762
   -5.5110  -22.2251   10.5640 LP  0  0  0  0  0  0  0  0  0  0  0  0  # atno 4319 bound_to 3762
   -5.2931   -4.9966    7.9538 LP  0  0  0  0  0  0  0  0  0  0  0  0  # atno 4320 bound_to 2467
   -3.6924   -4.9348    8.2708 LP  0  0  0  0  0  0  0  0  0  0  0  0  # atno 4321 bound_to 2467

> <Gold.Score>
     Score     S(PLP)   S(hbond)     S(cho)   S(metal)  DE(clash)   DE(tors)     intcor
     48.09     -48.85       0.00       0.00       0.00       0.00       1.06       1.36

> <Gold.PLP.Fitness>
48.0920

> <Gold.PLP.PLP>
-48.8492

> <Gold.PLP.part.hbond>
-0.0856

> <Gold.PLP.part.metal>
0.0000

> <Gold.PLP.part.buried>
-3.9879

> <Gold.PLP.part.nonpolar>
-46.1829

> <Gold.PLP.part.repulsive>
0.3630

> <Gold.PLP.ligand.clash>
0.0000

> <Gold.PLP.ligand.torsion>
1.0563

> <Gold.PLP.Chemscore.Hbond>
0.0000

> <Gold.PLP.Chemscore.CHOScore>
0.0000

> <Gold.PLP.Chemscore.Metal>
0.0000

> <Gold.PLP.Chemscore.Internal.Correction>
1.3553

