#       Name:                EN300-14823_i001
#       Creating user name   fsindt
#       Creation time:       Thu Mar  2 02:47:24 2023


#       File generated by GOLD software.
#

@<TRIPOS>MOLECULE
EN300-14823_i001|acide_1|mol2|11555|dock19
    28    28     1
SMALL
USER_CHARGES


@<TRIPOS>ATOM
      1 C1          -1.2865 -10.4373  10.2526 C.3            1 <1>                0.0000
      2 O2          -1.4546 -11.7460  10.8015 O.3            1 <1>                0.0000
      3 C3          -0.6457 -12.7258  10.3193 C.ar           1 <1>                0.0000
      4 C4          -0.3638 -13.8394  11.0979 C.ar           1 <1>                0.0000
      5 C5           0.4586 -14.8359  10.6083 C.ar           1 <1>                0.0000
      6 C6           0.7631 -16.0442  11.4559 C.3            1 <1>                0.0000
      7 C7           1.6014 -15.6215  12.6640 C.3            1 <1>                0.0000
      8 C8           1.3817 -16.5949  13.7932 C.2            1 <1>                0.0000
      9 O9           1.9700 -17.6628  13.8008 O.co2          1 <1>                0.0000
     10 O10          0.6155 -16.3146  14.6993 O.co2          1 <1>               -1.0000
     11 C11          1.0020 -14.7267   9.3425 C.ar           1 <1>                0.0000
     12 C12          0.7231 -13.6150   8.5601 C.ar           1 <1>                0.0000
     13 O13          1.2575 -13.5083   7.3151 O.3            1 <1>                0.0000
     14 C14          1.3938 -12.1910   6.7784 C.3            1 <1>                0.0000
     15 C15         -0.1060 -12.6163   9.0471 C.ar           1 <1>                0.0000
     16 H16         -1.9919  -9.7526  10.7234 H              1 <1>                0.0000
     17 H17         -0.2686 -10.0939  10.4370 H              1 <1>                0.0000
     18 H18         -1.4710 -10.4674   9.1787 H              1 <1>                0.0000
     19 H19         -0.7874 -13.9270  12.0875 H              1 <1>                0.0000
     20 H20         -0.1697 -16.4914  11.7995 H              1 <1>                0.0000
     21 H21          1.3189 -16.7720  10.8648 H              1 <1>                0.0000
     22 H22          2.6564 -15.6152  12.3898 H              1 <1>                0.0000
     23 H23          1.3028 -14.6226  12.9819 H              1 <1>                0.0000
     24 H24          1.6445 -15.5069   8.9620 H              1 <1>                0.0000
     25 H25          1.8320 -12.2482   5.7820 H              1 <1>                0.0000
     26 H26          0.4125 -11.7202   6.7172 H              1 <1>                0.0000
     27 H27          2.0407 -11.5998   7.4264 H              1 <1>                0.0000
     28 H28         -0.3242 -11.7504   8.4396 H              1 <1>                0.0000
@<TRIPOS>BOND
    1    1    2 1     
    2    1   16 1     
    3    1   17 1     
    4    1   18 1     
    5    2    3 1     
    6    3    4 ar    
    7    3   15 ar    
    8    4    5 ar    
    9    4   19 1     
   10    5    6 1     
   11    5   11 ar    
   12    6    7 1     
   13    6   20 1     
   14    6   21 1     
   15    7    8 1     
   16    7   22 1     
   17    7   23 1     
   18    8    9 ar    
   19    8   10 ar    
   20   11   12 ar    
   21   11   24 1     
   22   12   13 1     
   23   12   15 ar    
   24   13   14 1     
   25   14   25 1     
   26   14   26 1     
   27   14   27 1     
   28   15   28 1     
@<TRIPOS>SUBSTRUCTURE
      1 ****           1
@<TRIPOS>COMMENT
> <Gold.Version>
2022.2.0

> <Gold.Id.Protein>
3pbl|protein|mol2

> <Gold.Protein.RotatedTorsions>
[ 1303 1298 1297 1294 ] final -161.10 input  179.99 | X-H torsion
[ 2461 2456 2455 2452 ] final  147.66 input   30.03 | X-H torsion
[ 2515 2510 2509 2506 ] final  -77.28 input  -89.99 | X-H torsion
[ 3721 3712 3711 3710 ] final   37.71 input -179.91 | X-H torsion
[ 3841 3832 3831 3830 ] final   -7.26 input -179.91 | X-H torsion
[ 3767 3762 3761 3758 ] final -115.08 input  -89.99 | X-H torsion
[ 2472 2467 2466 2463 ] final   31.27 input  -89.97 | X-H torsion

> <Gold.Protein.ActiveResidues>
 VAL82   VAL86   LEU89   PHE106  VAL107  ASP110  VAL111  MET112  CYS114  THR115 
 CYS181  SER182  ILE183  PHE188  VAL189  ILE190  SER192  SER193  SER196  TRP342 
 PHE345  PHE346  HIS349  VAL350  TYR365  THR369  GLY372  TYR373 

> <Gold.Protein.RotatedAtoms>
    4.7200   -8.6598    4.5037 H   0  0  0  0  0  0  0  0  0  0  0  0  # atno 1303 bound_to 1298
    1.8964   -8.9587    8.2987 H   0  0  0  0  0  0  0  0  0  0  0  0  # atno 2461 bound_to 2456
   -4.1849   -4.8028    7.7520 H   0  0  0  0  0  0  0  0  0  0  0  0  # atno 2472 bound_to 2467
    2.8353   -8.7625    4.4894 H   0  0  0  0  0  0  0  0  0  0  0  0  # atno 2515 bound_to 2510
   -2.5004  -18.0195   13.6862 H   0  0  0  0  0  0  0  0  0  0  0  0  # atno 3721 bound_to 3712
   -4.9159  -21.9474   11.4794 H   0  0  0  0  0  0  0  0  0  0  0  0  # atno 3767 bound_to 3762
    1.6791  -20.4024    9.5187 H   0  0  0  0  0  0  0  0  0  0  0  0  # atno 3841 bound_to 3832
    4.2681  -10.2029    4.7878 LP  0  0  0  0  0  0  0  0  0  0  0  0  # atno 4297 bound_to 1298
    3.3738   -9.2589    3.8000 LP  0  0  0  0  0  0  0  0  0  0  0  0  # atno 4298 bound_to 1298
    1.4786   -7.9170    7.1123 LP  0  0  0  0  0  0  0  0  0  0  0  0  # atno 4299 bound_to 2456
    0.3630   -8.9326    7.7373 LP  0  0  0  0  0  0  0  0  0  0  0  0  # atno 4300 bound_to 2456
    2.2129   -8.8274    5.9974 LP  0  0  0  0  0  0  0  0  0  0  0  0  # atno 4301 bound_to 2510
    2.2482   -7.4091    5.1888 LP  0  0  0  0  0  0  0  0  0  0  0  0  # atno 4302 bound_to 2510
   -3.1697  -17.1018   14.8211 LP  0  0  0  0  0  0  0  0  0  0  0  0  # atno 4306 bound_to 3712
   -3.4713  -16.8207   13.2410 LP  0  0  0  0  0  0  0  0  0  0  0  0  # atno 4307 bound_to 3712
    2.2544  -19.6815    8.2052 LP  0  0  0  0  0  0  0  0  0  0  0  0  # atno 4314 bound_to 3832
    3.0353  -20.9560    8.8628 LP  0  0  0  0  0  0  0  0  0  0  0  0  # atno 4315 bound_to 3832
   -3.9347  -23.1502   10.9720 LP  0  0  0  0  0  0  0  0  0  0  0  0  # atno 4318 bound_to 3762
   -5.2769  -22.7772   10.1200 LP  0  0  0  0  0  0  0  0  0  0  0  0  # atno 4319 bound_to 3762
   -4.0264   -5.3377    9.2867 LP  0  0  0  0  0  0  0  0  0  0  0  0  # atno 4320 bound_to 2467
   -5.5056   -5.2530    8.6002 LP  0  0  0  0  0  0  0  0  0  0  0  0  # atno 4321 bound_to 2467

> <Gold.Score>
     Score     S(PLP)   S(hbond)     S(cho)   S(metal)  DE(clash)   DE(tors)     intcor
     44.73     -42.72       1.00       0.00       0.00       0.00       1.17       1.36

> <Gold.PLP.Fitness>
44.7310

> <Gold.PLP.PLP>
-42.7208

> <Gold.PLP.part.hbond>
-1.0000

> <Gold.PLP.part.metal>
0.0000

> <Gold.PLP.part.buried>
-4.3101

> <Gold.PLP.part.nonpolar>
-38.8926

> <Gold.PLP.part.repulsive>
0.2076

> <Gold.PLP.ligand.clash>
0.0000

> <Gold.PLP.ligand.torsion>
1.1725

> <Gold.PLP.Chemscore.Hbond>
1.0000

> <Gold.PLP.Chemscore.CHOScore>
0.0000

> <Gold.PLP.Chemscore.Metal>
0.0000

> <Gold.Chemscore.Hbonds>
donor molecule, donor type, donor heavy atom, donor atom, acceptor molecule, acceptor atom, score
      P1  H  2305  2313       L1    10  1.00

> <Gold.PLP.Chemscore.Internal.Correction>
1.3553

