#       Name:                EN300-14823_i001
#       Creating user name   fsindt
#       Creation time:       Thu Mar  2 02:47:19 2023


#       File generated by GOLD software.
#

@<TRIPOS>MOLECULE
EN300-14823_i001|acide_1|mol2|11555|dock12
    28    28     1
SMALL
USER_CHARGES


@<TRIPOS>ATOM
      1 C1          -1.0467 -10.2394  11.4009 C.3            1 <1>                0.0000
      2 O2          -0.3009 -10.2903  10.1830 O.3            1 <1>                0.0000
      3 C3           0.0467 -11.5212   9.7235 C.ar           1 <1>                0.0000
      4 C4           0.1329 -12.5916  10.6025 C.ar           1 <1>                0.0000
      5 C5           0.4863 -13.8433  10.1361 C.ar           1 <1>                0.0000
      6 C6           0.5792 -15.0040  11.0927 C.3            1 <1>                0.0000
      7 C7          -0.4014 -14.7924  12.2480 C.3            1 <1>                0.0000
      8 C8          -0.3085 -15.9531  13.2047 C.2            1 <1>                0.0000
      9 O9          -0.7405 -17.0462  12.8807 O.co2          1 <1>                0.0000
     10 O10          0.1986 -15.7990  14.3027 O.co2          1 <1>               -1.0000
     11 C11          0.7543 -14.0327   8.7938 C.ar           1 <1>                0.0000
     12 C12          0.6695 -12.9653   7.9109 C.ar           1 <1>                0.0000
     13 O13          0.9328 -13.1523   6.5908 O.3            1 <1>                0.0000
     14 C14          1.3401 -12.0055   5.8418 C.3            1 <1>                0.0000
     15 C15          0.3101 -11.7096   8.3756 C.ar           1 <1>                0.0000
     16 H16         -1.2580  -9.2005  11.6543 H              1 <1>                0.0000
     17 H17         -1.9844 -10.7808  11.2757 H              1 <1>                0.0000
     18 H18         -0.4665 -10.6979  12.2017 H              1 <1>                0.0000
     19 H19         -0.0761 -12.4461  11.6520 H              1 <1>                0.0000
     20 H20          0.3302 -15.9271  10.5693 H              1 <1>                0.0000
     21 H21          1.5939 -15.0712  11.4851 H              1 <1>                0.0000
     22 H22         -0.1523 -13.8693  12.7715 H              1 <1>                0.0000
     23 H23         -1.4160 -14.7251  11.8557 H              1 <1>                0.0000
     24 H24          1.0304 -15.0120   8.4316 H              1 <1>                0.0000
     25 H25          1.5178 -12.2927   4.8055 H              1 <1>                0.0000
     26 H26          0.5558 -11.2493   5.8799 H              1 <1>                0.0000
     27 H27          2.2571 -11.5996   6.2687 H              1 <1>                0.0000
     28 H28          0.2435 -10.8778   7.6900 H              1 <1>                0.0000
@<TRIPOS>BOND
    1    1    2 1     
    2    1   16 1     
    3    1   17 1     
    4    1   18 1     
    5    2    3 1     
    6    3    4 ar    
    7    3   15 ar    
    8    4    5 ar    
    9    4   19 1     
   10    5    6 1     
   11    5   11 ar    
   12    6    7 1     
   13    6   20 1     
   14    6   21 1     
   15    7    8 1     
   16    7   22 1     
   17    7   23 1     
   18    8    9 ar    
   19    8   10 ar    
   20   11   12 ar    
   21   11   24 1     
   22   12   13 1     
   23   12   15 ar    
   24   13   14 1     
   25   14   25 1     
   26   14   26 1     
   27   14   27 1     
   28   15   28 1     
@<TRIPOS>SUBSTRUCTURE
      1 ****           1
@<TRIPOS>COMMENT
> <Gold.Version>
2022.2.0

> <Gold.Id.Protein>
3pbl|protein|mol2

> <Gold.Protein.RotatedTorsions>
[ 1303 1298 1297 1294 ] final  -66.14 input  179.99 | X-H torsion
[ 2461 2456 2455 2452 ] final -141.28 input   30.03 | X-H torsion
[ 2515 2510 2509 2506 ] final  -57.42 input  -89.99 | X-H torsion
[ 3721 3712 3711 3710 ] final   62.74 input -179.91 | X-H torsion
[ 3841 3832 3831 3830 ] final  167.51 input -179.91 | X-H torsion
[ 3767 3762 3761 3758 ] final  -69.33 input  -89.99 | X-H torsion
[ 2472 2467 2466 2463 ] final   37.58 input  -89.97 | X-H torsion

> <Gold.Protein.ActiveResidues>
 VAL82   VAL86   LEU89   PHE106  VAL107  ASP110  VAL111  MET112  CYS114  THR115 
 CYS181  SER182  ILE183  PHE188  VAL189  ILE190  SER192  SER193  SER196  TRP342 
 PHE345  PHE346  HIS349  VAL350  TYR365  THR369  GLY372  TYR373 

> <Gold.Protein.RotatedAtoms>
    3.5545   -8.8924    3.7840 H   0  0  0  0  0  0  0  0  0  0  0  0  # atno 1303 bound_to 1298
    0.8476   -9.2730    8.2466 H   0  0  0  0  0  0  0  0  0  0  0  0  # atno 2461 bound_to 2456
   -4.2810   -4.7994    7.7133 H   0  0  0  0  0  0  0  0  0  0  0  0  # atno 2472 bound_to 2467
    2.8183   -8.4589    4.3746 H   0  0  0  0  0  0  0  0  0  0  0  0  # atno 2515 bound_to 2510
   -2.6060  -17.8871   13.3512 H   0  0  0  0  0  0  0  0  0  0  0  0  # atno 3721 bound_to 3712
   -5.4085  -21.9979   10.9388 H   0  0  0  0  0  0  0  0  0  0  0  0  # atno 3767 bound_to 3762
    3.0504  -20.1965    8.4852 H   0  0  0  0  0  0  0  0  0  0  0  0  # atno 3841 bound_to 3832
    4.8827   -8.9577    4.7317 LP  0  0  0  0  0  0  0  0  0  0  0  0  # atno 4297 bound_to 1298
    3.9252  -10.2714    4.5761 LP  0  0  0  0  0  0  0  0  0  0  0  0  # atno 4298 bound_to 1298
    2.1588   -8.3944    7.8266 LP  0  0  0  0  0  0  0  0  0  0  0  0  # atno 4299 bound_to 2456
    0.7313   -8.1410    7.0751 LP  0  0  0  0  0  0  0  0  0  0  0  0  # atno 4300 bound_to 2456
    2.3411   -9.0635    5.8142 LP  0  0  0  0  0  0  0  0  0  0  0  0  # atno 4301 bound_to 2510
    2.1371   -7.4767    5.4869 LP  0  0  0  0  0  0  0  0  0  0  0  0  # atno 4302 bound_to 2510
   -2.9617  -17.4591   14.8572 LP  0  0  0  0  0  0  0  0  0  0  0  0  # atno 4306 bound_to 3712
   -3.5572  -16.6162   13.5917 LP  0  0  0  0  0  0  0  0  0  0  0  0  # atno 4307 bound_to 3712
    2.1842  -21.0838    9.5043 LP  0  0  0  0  0  0  0  0  0  0  0  0  # atno 4314 bound_to 3832
    1.5214  -19.7915    8.7577 LP  0  0  0  0  0  0  0  0  0  0  0  0  # atno 4315 bound_to 3832
   -4.0197  -22.6485   11.4996 LP  0  0  0  0  0  0  0  0  0  0  0  0  # atno 4318 bound_to 3762
   -4.6994  -23.2285   10.1328 LP  0  0  0  0  0  0  0  0  0  0  0  0  # atno 4319 bound_to 3762
   -3.9459   -5.3078    9.2285 LP  0  0  0  0  0  0  0  0  0  0  0  0  # atno 4320 bound_to 2467
   -5.4899   -5.2862    8.6972 LP  0  0  0  0  0  0  0  0  0  0  0  0  # atno 4321 bound_to 2467

> <Gold.Score>
     Score     S(PLP)   S(hbond)     S(cho)   S(metal)  DE(clash)   DE(tors)     intcor
     48.59     -44.70       1.62       0.00       0.00       0.00       1.16       1.36

> <Gold.PLP.Fitness>
48.5856

> <Gold.PLP.PLP>
-44.6958

> <Gold.PLP.part.hbond>
-2.3624

> <Gold.PLP.part.metal>
0.0000

> <Gold.PLP.part.buried>
-6.5225

> <Gold.PLP.part.nonpolar>
-37.1746

> <Gold.PLP.part.repulsive>
0.2136

> <Gold.PLP.ligand.clash>
0.0036

> <Gold.PLP.ligand.torsion>
1.1619

> <Gold.PLP.Chemscore.Hbond>
1.6207

> <Gold.PLP.Chemscore.CHOScore>
0.0000

> <Gold.PLP.Chemscore.Metal>
0.0000

> <Gold.Chemscore.Hbonds>
donor molecule, donor type, donor heavy atom, donor atom, acceptor molecule, acceptor atom, score
      P1  H  2456  2461       L1     2  0.03
      P1  H  2305  2313       L1    10  1.00
      P1  H  3712  3721       L1     9  0.59

> <Gold.PLP.Chemscore.Internal.Correction>
1.3553

