#       Name:                EN300-14823_i001
#       Creating user name   fsindt
#       Creation time:       Thu Mar  2 02:47:22 2023


#       File generated by GOLD software.
#

@<TRIPOS>MOLECULE
EN300-14823_i001|acide_1|mol2|11555|dock16
    28    28     1
SMALL
USER_CHARGES


@<TRIPOS>ATOM
      1 C1          -2.4534 -10.7494  10.4751 C.3            1 <1>                0.0000
      2 O2          -1.3848 -11.1458   9.6130 O.3            1 <1>                0.0000
      3 C3          -0.8343 -12.3684   9.8349 C.ar           1 <1>                0.0000
      4 C4          -0.9016 -12.9414  11.0970 C.ar           1 <1>                0.0000
      5 C5          -0.3419 -14.1843  11.3235 C.ar           1 <1>                0.0000
      6 C6          -0.4164 -14.8043  12.6950 C.3            1 <1>                0.0000
      7 C7          -0.1198 -16.3019  12.5944 C.3            1 <1>                0.0000
      8 C8           0.1736 -16.8492  13.9676 C.2            1 <1>                0.0000
      9 O9          -0.4040 -17.8478  14.3621 O.co2          1 <1>                0.0000
     10 O10          0.9886 -16.2933  14.6840 O.co2          1 <1>               -1.0000
     11 C11          0.2855 -14.8599  10.2943 C.ar           1 <1>                0.0000
     12 C12          0.3554 -14.2910   9.0304 C.ar           1 <1>                0.0000
     13 O13          0.9723 -14.9561   8.0185 O.3            1 <1>                0.0000
     14 C14          0.4879 -14.7178   6.6954 C.3            1 <1>                0.0000
     15 C15         -0.2099 -13.0463   8.7995 C.ar           1 <1>                0.0000
     16 H16         -2.8007  -9.7564  10.1901 H              1 <1>                0.0000
     17 H17         -3.2745 -11.4608  10.3869 H              1 <1>                0.0000
     18 H18         -2.0997 -10.7287  11.5060 H              1 <1>                0.0000
     19 H19         -1.3915 -12.4153  11.9030 H              1 <1>                0.0000
     20 H20          0.3174 -14.3316  13.3478 H              1 <1>                0.0000
     21 H21         -1.4155 -14.6586  13.1059 H              1 <1>                0.0000
     22 H22         -0.9847 -16.8163  12.1755 H              1 <1>                0.0000
     23 H23          0.7441 -16.4587  11.9485 H              1 <1>                0.0000
     24 H24          0.7222 -15.8312  10.4737 H              1 <1>                0.0000
     25 H25          1.0658 -15.3091   5.9850 H              1 <1>                0.0000
     26 H26         -0.5624 -15.0033   6.6361 H              1 <1>                0.0000
     27 H27          0.5909 -13.6596   6.4559 H              1 <1>                0.0000
     28 H28         -0.1565 -12.6021   7.8166 H              1 <1>                0.0000
@<TRIPOS>BOND
    1    1    2 1     
    2    1   16 1     
    3    1   17 1     
    4    1   18 1     
    5    2    3 1     
    6    3    4 ar    
    7    3   15 ar    
    8    4    5 ar    
    9    4   19 1     
   10    5    6 1     
   11    5   11 ar    
   12    6    7 1     
   13    6   20 1     
   14    6   21 1     
   15    7    8 1     
   16    7   22 1     
   17    7   23 1     
   18    8    9 ar    
   19    8   10 ar    
   20   11   12 ar    
   21   11   24 1     
   22   12   13 1     
   23   12   15 ar    
   24   13   14 1     
   25   14   25 1     
   26   14   26 1     
   27   14   27 1     
   28   15   28 1     
@<TRIPOS>SUBSTRUCTURE
      1 ****           1
@<TRIPOS>COMMENT
> <Gold.Version>
2022.2.0

> <Gold.Id.Protein>
3pbl|protein|mol2

> <Gold.Protein.RotatedTorsions>
[ 1303 1298 1297 1294 ] final  162.36 input  179.99 | X-H torsion
[ 2461 2456 2455 2452 ] final  155.43 input   30.03 | X-H torsion
[ 2515 2510 2509 2506 ] final  -14.50 input  -89.99 | X-H torsion
[ 3721 3712 3711 3710 ] final    3.66 input -179.91 | X-H torsion
[ 3841 3832 3831 3830 ] final  -59.31 input -179.91 | X-H torsion
[ 3767 3762 3761 3758 ] final  117.81 input  -89.99 | X-H torsion
[ 2472 2467 2466 2463 ] final   89.55 input  -89.97 | X-H torsion

> <Gold.Protein.ActiveResidues>
 VAL82   VAL86   LEU89   PHE106  VAL107  ASP110  VAL111  MET112  CYS114  THR115 
 CYS181  SER182  ILE183  PHE188  VAL189  ILE190  SER192  SER193  SER196  TRP342 
 PHE345  PHE346  HIS349  VAL350  TYR365  THR369  GLY372  TYR373 

> <Gold.Protein.RotatedAtoms>
    4.9095   -9.1246    4.8158 H   0  0  0  0  0  0  0  0  0  0  0  0  # atno 1303 bound_to 1298
    1.8034   -9.0347    8.3422 H   0  0  0  0  0  0  0  0  0  0  0  0  # atno 2461 bound_to 2456
   -5.0951   -4.9172    7.7915 H   0  0  0  0  0  0  0  0  0  0  0  0  # atno 2472 bound_to 2467
    2.6348   -7.8015    4.4736 H   0  0  0  0  0  0  0  0  0  0  0  0  # atno 2515 bound_to 2510
   -2.4801  -17.9765   14.1912 H   0  0  0  0  0  0  0  0  0  0  0  0  # atno 3721 bound_to 3712
   -3.9659  -23.2051   10.8734 H   0  0  0  0  0  0  0  0  0  0  0  0  # atno 3767 bound_to 3762
    1.6099  -19.8181    9.0384 H   0  0  0  0  0  0  0  0  0  0  0  0  # atno 3841 bound_to 3832
    3.7762  -10.2458    4.4626 LP  0  0  0  0  0  0  0  0  0  0  0  0  # atno 4297 bound_to 1298
    3.6762   -8.7509    3.8130 LP  0  0  0  0  0  0  0  0  0  0  0  0  # atno 4298 bound_to 1298
    1.5961   -7.9253    7.1616 LP  0  0  0  0  0  0  0  0  0  0  0  0  # atno 4299 bound_to 2456
    0.3385   -8.8483    7.6446 LP  0  0  0  0  0  0  0  0  0  0  0  0  # atno 4300 bound_to 2456
    2.6334   -9.2542    5.2190 LP  0  0  0  0  0  0  0  0  0  0  0  0  # atno 4301 bound_to 2510
    2.0285   -7.9437    5.9830 LP  0  0  0  0  0  0  0  0  0  0  0  0  # atno 4302 bound_to 2510
   -3.4205  -16.7133   14.5040 LP  0  0  0  0  0  0  0  0  0  0  0  0  # atno 4306 bound_to 3712
   -3.2439  -17.2588   12.9750 LP  0  0  0  0  0  0  0  0  0  0  0  0  # atno 4307 bound_to 3712
    2.9416  -20.1646    8.2123 LP  0  0  0  0  0  0  0  0  0  0  0  0  # atno 4314 bound_to 3832
    2.4281  -21.1478    9.4106 LP  0  0  0  0  0  0  0  0  0  0  0  0  # atno 4315 bound_to 3832
   -5.3427  -22.6902   10.1619 LP  0  0  0  0  0  0  0  0  0  0  0  0  # atno 4318 bound_to 3762
   -4.8186  -21.9800   11.5358 LP  0  0  0  0  0  0  0  0  0  0  0  0  # atno 4319 bound_to 3762
   -3.6367   -5.0182    8.5192 LP  0  0  0  0  0  0  0  0  0  0  0  0  # atno 4320 bound_to 2467
   -4.9852   -5.4581    9.3283 LP  0  0  0  0  0  0  0  0  0  0  0  0  # atno 4321 bound_to 2467

> <Gold.Score>
     Score     S(PLP)   S(hbond)     S(cho)   S(metal)  DE(clash)   DE(tors)     intcor
     48.24     -43.39       1.96       0.00       0.00       0.19       1.10       1.36

> <Gold.PLP.Fitness>
48.2432

> <Gold.PLP.PLP>
-43.3893

> <Gold.PLP.part.hbond>
-2.0000

> <Gold.PLP.part.metal>
0.0000

> <Gold.PLP.part.buried>
-5.8468

> <Gold.PLP.part.nonpolar>
-36.8291

> <Gold.PLP.part.repulsive>
0.2164

> <Gold.PLP.ligand.clash>
0.1867

> <Gold.PLP.ligand.torsion>
1.0973

> <Gold.PLP.Chemscore.Hbond>
1.9600

> <Gold.PLP.Chemscore.CHOScore>
0.0000

> <Gold.PLP.Chemscore.Metal>
0.0000

> <Gold.Chemscore.Hbonds>
donor molecule, donor type, donor heavy atom, donor atom, acceptor molecule, acceptor atom, score
      P1  H  2305  2313       L1    10  1.00
      P1  H  3712  3721       L1     9  0.96

> <Gold.PLP.Chemscore.Internal.Correction>
1.3553

