#       Name:                EN300-14823_i001
#       Creating user name   fsindt
#       Creation time:       Thu Mar  2 02:47:14 2023


#       File generated by GOLD software.
#

@<TRIPOS>MOLECULE
EN300-14823_i001|acide_1|mol2|11555|dock3
    28    28     1
SMALL
USER_CHARGES


@<TRIPOS>ATOM
      1 C1          -3.7949 -10.8594  10.2767 C.3            1 <1>                0.0000
      2 O2          -2.5480 -10.7098   9.5946 O.3            1 <1>                0.0000
      3 C3          -1.6268 -11.6933   9.7706 C.ar           1 <1>                0.0000
      4 C4          -1.6075 -12.4236  10.9505 C.ar           1 <1>                0.0000
      5 C5          -0.6711 -13.4236  11.1302 C.ar           1 <1>                0.0000
      6 C6          -0.6524 -14.2152  12.4125 C.3            1 <1>                0.0000
      7 C7          -0.3296 -15.6786  12.1037 C.3            1 <1>                0.0000
      8 C8          -0.1130 -16.4280  13.3931 C.2            1 <1>                0.0000
      9 O9          -0.4519 -17.5956  13.4839 O.co2          1 <1>                0.0000
     10 O10          0.4011 -15.8666  14.3455 O.co2          1 <1>               -1.0000
     11 C11          0.2480 -13.6994  10.1359 C.ar           1 <1>                0.0000
     12 C12          0.2328 -12.9718   8.9543 C.ar           1 <1>                0.0000
     13 O13          1.1367 -13.2438   7.9766 O.3            1 <1>                0.0000
     14 C14          0.7774 -12.8815   6.6419 C.3            1 <1>                0.0000
     15 C15         -0.7091 -11.9715   8.7695 C.ar           1 <1>                0.0000
     16 H16         -4.4369 -10.0079  10.0508 H              1 <1>                0.0000
     17 H17         -4.2809 -11.7781   9.9483 H              1 <1>                0.0000
     18 H18         -3.6178 -10.9060  11.3512 H              1 <1>                0.0000
     19 H19         -2.3249 -12.2099  11.7291 H              1 <1>                0.0000
     20 H20          0.1076 -13.8084  13.0795 H              1 <1>                0.0000
     21 H21         -1.6289 -14.1521  12.8927 H              1 <1>                0.0000
     22 H22         -1.1601 -16.1266  11.5582 H              1 <1>                0.0000
     23 H23          0.5742 -15.7310  11.4967 H              1 <1>                0.0000
     24 H24          0.9789 -14.4815  10.2787 H              1 <1>                0.0000
     25 H25          1.5848 -13.1530   5.9618 H              1 <1>                0.0000
     26 H26         -0.1324 -13.4088   6.3546 H              1 <1>                0.0000
     27 H27          0.6056 -11.8063   6.5910 H              1 <1>                0.0000
     28 H28         -0.7225 -11.4043   7.8506 H              1 <1>                0.0000
@<TRIPOS>BOND
    1    1    2 1     
    2    1   16 1     
    3    1   17 1     
    4    1   18 1     
    5    2    3 1     
    6    3    4 ar    
    7    3   15 ar    
    8    4    5 ar    
    9    4   19 1     
   10    5    6 1     
   11    5   11 ar    
   12    6    7 1     
   13    6   20 1     
   14    6   21 1     
   15    7    8 1     
   16    7   22 1     
   17    7   23 1     
   18    8    9 ar    
   19    8   10 ar    
   20   11   12 ar    
   21   11   24 1     
   22   12   13 1     
   23   12   15 ar    
   24   13   14 1     
   25   14   25 1     
   26   14   26 1     
   27   14   27 1     
   28   15   28 1     
@<TRIPOS>SUBSTRUCTURE
      1 ****           1
@<TRIPOS>COMMENT
> <Gold.Version>
2022.2.0

> <Gold.Id.Protein>
3pbl|protein|mol2

> <Gold.Protein.RotatedTorsions>
[ 1303 1298 1297 1294 ] final   62.59 input  179.99 | X-H torsion
[ 2461 2456 2455 2452 ] final  175.77 input   30.03 | X-H torsion
[ 2515 2510 2509 2506 ] final -114.30 input  -89.99 | X-H torsion
[ 3721 3712 3711 3710 ] final   25.31 input -179.91 | X-H torsion
[ 3841 3832 3831 3830 ] final -159.85 input -179.91 | X-H torsion
[ 3767 3762 3761 3758 ] final    0.06 input  -89.99 | X-H torsion
[ 2472 2467 2466 2463 ] final  -75.17 input  -89.97 | X-H torsion

> <Gold.Protein.ActiveResidues>
 VAL82   VAL86   LEU89   PHE106  VAL107  ASP110  VAL111  MET112  CYS114  THR115 
 CYS181  SER182  ILE183  PHE188  VAL189  ILE190  SER192  SER193  SER196  TRP342 
 PHE345  PHE346  HIS349  VAL350  TYR365  THR369  GLY372  TYR373 

> <Gold.Protein.RotatedAtoms>
    4.0435  -10.2663    4.6570 H   0  0  0  0  0  0  0  0  0  0  0  0  # atno 1303 bound_to 1298
    1.5160   -9.1931    8.4001 H   0  0  0  0  0  0  0  0  0  0  0  0  # atno 2461 bound_to 2456
   -3.8628   -5.2716    9.1512 H   0  0  0  0  0  0  0  0  0  0  0  0  # atno 2472 bound_to 2467
    2.7418   -9.1688    4.9187 H   0  0  0  0  0  0  0  0  0  0  0  0  # atno 2515 bound_to 2510
   -2.4755  -18.0343   13.8710 H   0  0  0  0  0  0  0  0  0  0  0  0  # atno 3721 bound_to 3712
   -5.3226  -22.7175   10.1469 H   0  0  0  0  0  0  0  0  0  0  0  0  # atno 3767 bound_to 3762
    2.7499  -19.8384    8.3507 H   0  0  0  0  0  0  0  0  0  0  0  0  # atno 3841 bound_to 3832
    3.4773   -9.0131    3.7766 LP  0  0  0  0  0  0  0  0  0  0  0  0  # atno 4297 bound_to 1298
    4.8413   -8.8416    4.6579 LP  0  0  0  0  0  0  0  0  0  0  0  0  # atno 4298 bound_to 1298
    1.8683   -8.0050    7.3362 LP  0  0  0  0  0  0  0  0  0  0  0  0  # atno 4299 bound_to 2456
    0.3535   -8.6103    7.4120 LP  0  0  0  0  0  0  0  0  0  0  0  0  # atno 4300 bound_to 2456
    2.0531   -8.2571    6.0850 LP  0  0  0  0  0  0  0  0  0  0  0  0  # atno 4301 bound_to 2510
    2.5017   -7.5728    4.6718 LP  0  0  0  0  0  0  0  0  0  0  0  0  # atno 4302 bound_to 2510
   -3.2693  -16.9408   14.7381 LP  0  0  0  0  0  0  0  0  0  0  0  0  # atno 4306 bound_to 3712
   -3.4004  -16.9646   13.1106 LP  0  0  0  0  0  0  0  0  0  0  0  0  # atno 4307 bound_to 3712
    2.6631  -21.1520    9.2688 LP  0  0  0  0  0  0  0  0  0  0  0  0  # atno 4314 bound_to 3832
    1.3896  -20.1369    9.1485 LP  0  0  0  0  0  0  0  0  0  0  0  0  # atno 4315 bound_to 3832
   -4.8499  -21.9687   11.5190 LP  0  0  0  0  0  0  0  0  0  0  0  0  # atno 4318 bound_to 3762
   -3.9551  -23.1889   10.9049 LP  0  0  0  0  0  0  0  0  0  0  0  0  # atno 4319 bound_to 3762
   -5.4581   -5.3221    8.8065 LP  0  0  0  0  0  0  0  0  0  0  0  0  # atno 4320 bound_to 2467
   -4.3959   -4.7998    7.6816 LP  0  0  0  0  0  0  0  0  0  0  0  0  # atno 4321 bound_to 2467

> <Gold.Score>
     Score     S(PLP)   S(hbond)     S(cho)   S(metal)  DE(clash)   DE(tors)     intcor
     51.95     -48.12       1.75       0.00       0.00       0.00       1.40       1.39

> <Gold.PLP.Fitness>
51.9547

> <Gold.PLP.PLP>
-48.1205

> <Gold.PLP.part.hbond>
-2.0000

> <Gold.PLP.part.metal>
0.0000

> <Gold.PLP.part.buried>
-6.8099

> <Gold.PLP.part.nonpolar>
-40.3676

> <Gold.PLP.part.repulsive>
0.1508

> <Gold.PLP.ligand.clash>
0.0000

> <Gold.PLP.ligand.torsion>
1.3979

> <Gold.PLP.Chemscore.Hbond>
1.7454

> <Gold.PLP.Chemscore.CHOScore>
0.0000

> <Gold.PLP.Chemscore.Metal>
0.0000

> <Gold.Chemscore.Hbonds>
donor molecule, donor type, donor heavy atom, donor atom, acceptor molecule, acceptor atom, score
      P1  H  2305  2313       L1    10  1.00
      P1  H  3712  3721       L1     9  0.75

> <Gold.PLP.Chemscore.Internal.Correction>
1.3938

