#       Name:                EN300-14823_i001
#       Creating user name   fsindt
#       Creation time:       Thu Mar  2 02:47:12 2023


#       File generated by GOLD software.
#

@<TRIPOS>MOLECULE
EN300-14823_i001
    28    28     1
SMALL
USER_CHARGES


@<TRIPOS>ATOM
      1 C1           3.0693   2.3049  -0.2852 C.3            1 <1>                0.0000
      2 O2           1.6686   2.3778  -0.0114 O.3            1 <1>                0.0000
      3 C3           1.0034   1.1999   0.1190 C.ar           1 <1>                0.0000
      4 C4          -0.3585   1.1974   0.3853 C.ar           1 <1>                0.0000
      5 C5          -1.0355   0.0002   0.5181 C.ar           1 <1>                0.0000
      6 C6          -2.5145   0.0003   0.8073 C.3            1 <1>                0.0000
      7 C7          -3.2918  -0.0002  -0.5106 C.3            1 <1>                0.0000
      8 C8          -4.7708   0.0000  -0.2214 C.2            1 <1>                0.0000
      9 O9          -5.1665   0.0004   0.9318 O.co2          1 <1>                0.0000
     10 O10         -5.5717  -0.0003  -1.1407 O.co2          1 <1>               -1.0000
     11 C11         -0.3587  -1.1972   0.3857 C.ar           1 <1>                0.0000
     12 C12          1.0033  -1.1999   0.1194 C.ar           1 <1>                0.0000
     13 O13          1.6683  -2.3779  -0.0111 O.3            1 <1>                0.0000
     14 C14          3.0689  -2.3052  -0.2849 C.3            1 <1>                0.0000
     15 C15          1.6837   0.0000  -0.0194 C.ar           1 <1>                0.0000
     16 H16          3.4767   3.3127  -0.3652 H              1 <1>                0.0000
     17 H17          3.5705   1.7735   0.5238 H              1 <1>                0.0000
     18 H18          3.2289   1.7729  -1.2231 H              1 <1>                0.0000
     19 H19         -0.8897   2.1320   0.4892 H              1 <1>                0.0000
     20 H20         -2.7725  -0.8895   1.3816 H              1 <1>                0.0000
     21 H21         -2.7725   0.8905   1.3809 H              1 <1>                0.0000
     22 H22         -3.0338   0.8896  -1.0849 H              1 <1>                0.0000
     23 H23         -3.0338  -0.8903  -1.0843 H              1 <1>                0.0000
     24 H24         -0.8900  -2.1317   0.4899 H              1 <1>                0.0000
     25 H25          3.4762  -3.3131  -0.3650 H              1 <1>                0.0000
     26 H26          3.2287  -1.7732  -1.2228 H              1 <1>                0.0000
     27 H27          3.5702  -1.7740   0.5241 H              1 <1>                0.0000
     28 H28          2.7436  -0.0001  -0.2267 H              1 <1>                0.0000
@<TRIPOS>BOND
    1    1    2 1     
    2    1   16 1     
    3    1   17 1     
    4    1   18 1     
    5    2    3 1     
    6    3    4 ar    
    7    3   15 ar    
    8    4    5 ar    
    9    4   19 1     
   10    5    6 1     
   11    5   11 ar    
   12    6    7 1     
   13    6   20 1     
   14    6   21 1     
   15    7    8 1     
   16    7   22 1     
   17    7   23 1     
   18    8    9 ar    
   19    8   10 ar    
   20   11   12 ar    
   21   11   24 1     
   22   12   13 1     
   23   12   15 ar    
   24   13   14 1     
   25   14   25 1     
   26   14   26 1     
   27   14   27 1     
   28   15   28 1     
@<TRIPOS>SUBSTRUCTURE
      1 ****           1
