#       Name:                EN300-14823_i001
#       Creating user name   fsindt
#       Creation time:       Thu Mar  2 02:47:19 2023


#       File generated by GOLD software.
#

@<TRIPOS>MOLECULE
EN300-14823_i001|acide_1|mol2|11555|dock11
    28    28     1
SMALL
USER_CHARGES


@<TRIPOS>ATOM
      1 C1           1.3958 -12.8156   6.5985 C.3            1 <1>                0.0000
      2 O2           0.6835 -11.8174   7.3324 O.3            1 <1>                0.0000
      3 C3           0.1250 -12.1993   8.5110 C.ar           1 <1>                0.0000
      4 C4           0.6642 -13.2614   9.2229 C.ar           1 <1>                0.0000
      5 C5           0.0969 -13.6504  10.4213 C.ar           1 <1>                0.0000
      6 C6           0.6843 -14.8042  11.1924 C.3            1 <1>                0.0000
      7 C7          -0.1022 -15.0037  12.4896 C.3            1 <1>                0.0000
      8 C8           0.7329 -15.7896  13.4675 C.2            1 <1>                0.0000
      9 O9           0.3256 -15.9818  14.6004 O.co2          1 <1>                0.0000
     10 O10          1.8159 -16.2331  13.1256 O.co2          1 <1>               -1.0000
     11 C11         -1.0081 -12.9828  10.9141 C.ar           1 <1>                0.0000
     12 C12         -1.5509 -11.9199  10.2058 C.ar           1 <1>                0.0000
     13 O13         -2.6374 -11.2635  10.6912 O.3            1 <1>                0.0000
     14 C14         -2.8225  -9.9121  10.2652 C.3            1 <1>                0.0000
     15 C15         -0.9803 -11.5246   9.0057 C.ar           1 <1>                0.0000
     16 H16          1.7898 -12.3795   5.6805 H              1 <1>                0.0000
     17 H17          2.2196 -13.1933   7.2041 H              1 <1>                0.0000
     18 H18          0.7211 -13.6352   6.3510 H              1 <1>                0.0000
     19 H19          1.5278 -13.7848   8.8398 H              1 <1>                0.0000
     20 H20          0.6271 -15.7107  10.5898 H              1 <1>                0.0000
     21 H21          1.7266 -14.5901  11.4288 H              1 <1>                0.0000
     22 H22         -0.3467 -14.0323  12.9193 H              1 <1>                0.0000
     23 H23         -1.0217 -15.5487  12.2768 H              1 <1>                0.0000
     24 H24         -1.4498 -13.2886  11.8510 H              1 <1>                0.0000
     25 H25         -3.7238  -9.5065  10.7249 H              1 <1>                0.0000
     26 H26         -1.9613  -9.3152  10.5655 H              1 <1>                0.0000
     27 H27         -2.9237  -9.8837   9.1803 H              1 <1>                0.0000
     28 H28         -1.4013 -10.6977   8.4532 H              1 <1>                0.0000
@<TRIPOS>BOND
    1    1    2 1     
    2    1   16 1     
    3    1   17 1     
    4    1   18 1     
    5    2    3 1     
    6    3    4 ar    
    7    3   15 ar    
    8    4    5 ar    
    9    4   19 1     
   10    5    6 1     
   11    5   11 ar    
   12    6    7 1     
   13    6   20 1     
   14    6   21 1     
   15    7    8 1     
   16    7   22 1     
   17    7   23 1     
   18    8    9 ar    
   19    8   10 ar    
   20   11   12 ar    
   21   11   24 1     
   22   12   13 1     
   23   12   15 ar    
   24   13   14 1     
   25   14   25 1     
   26   14   26 1     
   27   14   27 1     
   28   15   28 1     
@<TRIPOS>SUBSTRUCTURE
      1 ****           1
@<TRIPOS>COMMENT
> <Gold.Version>
2022.2.0

> <Gold.Id.Protein>
3pbl|protein|mol2

> <Gold.Protein.RotatedTorsions>
[ 1303 1298 1297 1294 ] final -139.34 input  179.99 | X-H torsion
[ 2461 2456 2455 2452 ] final -116.57 input   30.03 | X-H torsion
[ 2515 2510 2509 2506 ] final  -11.76 input  -89.99 | X-H torsion
[ 3721 3712 3711 3710 ] final   40.82 input -179.91 | X-H torsion
[ 3841 3832 3831 3830 ] final  128.04 input -179.91 | X-H torsion
[ 3767 3762 3761 3758 ] final -111.40 input  -89.99 | X-H torsion
[ 2472 2467 2466 2463 ] final   -3.97 input  -89.97 | X-H torsion

> <Gold.Protein.ActiveResidues>
 VAL82   VAL86   LEU89   PHE106  VAL107  ASP110  VAL111  MET112  CYS114  THR115 
 CYS181  SER182  ILE183  PHE188  VAL189  ILE190  SER192  SER193  SER196  TRP342 
 PHE345  PHE346  HIS349  VAL350  TYR365  THR369  GLY372  TYR373 

> <Gold.Protein.RotatedAtoms>
    4.4860   -8.5086    4.2824 H   0  0  0  0  0  0  0  0  0  0  0  0  # atno 1303 bound_to 1298
    0.5395   -9.1504    8.0166 H   0  0  0  0  0  0  0  0  0  0  0  0  # atno 2461 bound_to 2456
   -3.7631   -4.8913    8.1263 H   0  0  0  0  0  0  0  0  0  0  0  0  # atno 2472 bound_to 2467
    2.6179   -7.7660    4.4956 H   0  0  0  0  0  0  0  0  0  0  0  0  # atno 2515 bound_to 2510
   -2.5097  -18.0103   13.6410 H   0  0  0  0  0  0  0  0  0  0  0  0  # atno 3721 bound_to 3712
   -4.9651  -21.9350   11.4465 H   0  0  0  0  0  0  0  0  0  0  0  0  # atno 3767 bound_to 3762
    3.1134  -20.6483    8.8508 H   0  0  0  0  0  0  0  0  0  0  0  0  # atno 3841 bound_to 3832
    4.5458  -10.0157    4.9081 LP  0  0  0  0  0  0  0  0  0  0  0  0  # atno 4297 bound_to 1298
    3.3303   -9.5973    3.9011 LP  0  0  0  0  0  0  0  0  0  0  0  0  # atno 4298 bound_to 1298
    2.1033   -8.6867    8.0992 LP  0  0  0  0  0  0  0  0  0  0  0  0  # atno 4299 bound_to 2456
    1.0948   -7.9713    7.0325 LP  0  0  0  0  0  0  0  0  0  0  0  0  # atno 4300 bound_to 2456
    2.6498   -9.2492    5.1774 LP  0  0  0  0  0  0  0  0  0  0  0  0  # atno 4301 bound_to 2510
    2.0289   -7.9842    6.0026 LP  0  0  0  0  0  0  0  0  0  0  0  0  # atno 4302 bound_to 2510
   -3.1438  -17.1447   14.8354 LP  0  0  0  0  0  0  0  0  0  0  0  0  # atno 4306 bound_to 3712
   -3.4864  -16.7884   13.2790 LP  0  0  0  0  0  0  0  0  0  0  0  0  # atno 4307 bound_to 3712
    1.6507  -20.7185    9.5077 LP  0  0  0  0  0  0  0  0  0  0  0  0  # atno 4314 bound_to 3832
    1.9822  -19.6348    8.3320 LP  0  0  0  0  0  0  0  0  0  0  0  0  # atno 4315 bound_to 3832
   -3.9229  -23.1184   11.0221 LP  0  0  0  0  0  0  0  0  0  0  0  0  # atno 4318 bound_to 3762
   -5.2394  -22.8214   10.1027 LP  0  0  0  0  0  0  0  0  0  0  0  0  # atno 4319 bound_to 3762
   -4.5664   -5.4500    9.4336 LP  0  0  0  0  0  0  0  0  0  0  0  0  # atno 4320 bound_to 2467
   -5.3873   -5.0522    8.0792 LP  0  0  0  0  0  0  0  0  0  0  0  0  # atno 4321 bound_to 2467

> <Gold.Score>
     Score     S(PLP)   S(hbond)     S(cho)   S(metal)  DE(clash)   DE(tors)     intcor
     48.69     -47.15       1.00       0.00       0.00       1.16       0.83       1.36

> <Gold.PLP.Fitness>
48.6926

> <Gold.PLP.PLP>
-47.1501

> <Gold.PLP.part.hbond>
-1.0000

> <Gold.PLP.part.metal>
0.0000

> <Gold.PLP.part.buried>
-6.9375

> <Gold.PLP.part.nonpolar>
-40.8839

> <Gold.PLP.part.repulsive>
0.1588

> <Gold.PLP.ligand.clash>
1.1588

> <Gold.PLP.ligand.torsion>
0.8269

> <Gold.PLP.Chemscore.Hbond>
1.0000

> <Gold.PLP.Chemscore.CHOScore>
0.0000

> <Gold.PLP.Chemscore.Metal>
0.0000

> <Gold.Chemscore.Hbonds>
donor molecule, donor type, donor heavy atom, donor atom, acceptor molecule, acceptor atom, score
      P1  H  2305  2313       L1     9  1.00

> <Gold.PLP.Chemscore.Internal.Correction>
1.3553

