#       Name:                EN300-14823_i001
#       Creating user name   fsindt
#       Creation time:       Thu Mar  2 02:47:21 2023


#       File generated by GOLD software.
#

@<TRIPOS>MOLECULE
EN300-14823_i001|acide_1|mol2|11555|dock15
    28    28     1
SMALL
USER_CHARGES


@<TRIPOS>ATOM
      1 C1          -1.9144  -9.9562   9.8338 C.3            1 <1>                0.0000
      2 O2          -2.0950 -11.1469  10.6032 O.3            1 <1>                0.0000
      3 C3          -1.2312 -12.1696  10.3691 C.ar           1 <1>                0.0000
      4 C4          -1.0012 -13.1227  11.3511 C.ar           1 <1>                0.0000
      5 C5          -0.1230 -14.1628  11.1139 C.ar           1 <1>                0.0000
      6 C6           0.1250 -15.1966  12.1820 C.3            1 <1>                0.0000
      7 C7          -0.1854 -16.5881  11.6267 C.3            1 <1>                0.0000
      8 C8          -0.0493 -17.6095  12.7264 C.2            1 <1>                0.0000
      9 O9           1.0068 -17.7240  13.3248 O.co2          1 <1>                0.0000
     10 O10         -0.9953 -18.3215  13.0175 O.co2          1 <1>               -1.0000
     11 C11          0.5280 -14.2568   9.8986 C.ar           1 <1>                0.0000
     12 C12          0.3013 -13.3060   8.9134 C.ar           1 <1>                0.0000
     13 O13          0.9415 -13.3993   7.7183 O.3            1 <1>                0.0000
     14 C14          1.1009 -12.1913   6.9718 C.3            1 <1>                0.0000
     15 C15         -0.5833 -12.2645   9.1472 C.ar           1 <1>                0.0000
     16 H16         -2.6678  -9.2219  10.1187 H              1 <1>                0.0000
     17 H17         -0.9209  -9.5493  10.0218 H              1 <1>                0.0000
     18 H18         -2.0169 -10.1895   8.7739 H              1 <1>                0.0000
     19 H19         -1.5088 -13.0514  12.3017 H              1 <1>                0.0000
     20 H20          1.1687 -15.1541  12.4934 H              1 <1>                0.0000
     21 H21         -0.5184 -14.9955  13.0386 H              1 <1>                0.0000
     22 H22         -1.2038 -16.6056  11.2386 H              1 <1>                0.0000
     23 H23          0.5134 -16.8231  10.8239 H              1 <1>                0.0000
     24 H24          1.2139 -15.0707   9.7155 H              1 <1>                0.0000
     25 H25          1.6263 -12.4059   6.0412 H              1 <1>                0.0000
     26 H26          0.1206 -11.7711   6.7469 H              1 <1>                0.0000
     27 H27          1.6773 -11.4755   7.5577 H              1 <1>                0.0000
     28 H28         -0.7610 -11.5237   8.3817 H              1 <1>                0.0000
@<TRIPOS>BOND
    1    1    2 1     
    2    1   16 1     
    3    1   17 1     
    4    1   18 1     
    5    2    3 1     
    6    3    4 ar    
    7    3   15 ar    
    8    4    5 ar    
    9    4   19 1     
   10    5    6 1     
   11    5   11 ar    
   12    6    7 1     
   13    6   20 1     
   14    6   21 1     
   15    7    8 1     
   16    7   22 1     
   17    7   23 1     
   18    8    9 ar    
   19    8   10 ar    
   20   11   12 ar    
   21   11   24 1     
   22   12   13 1     
   23   12   15 ar    
   24   13   14 1     
   25   14   25 1     
   26   14   26 1     
   27   14   27 1     
   28   15   28 1     
@<TRIPOS>SUBSTRUCTURE
      1 ****           1
@<TRIPOS>COMMENT
> <Gold.Version>
2022.2.0

> <Gold.Id.Protein>
3pbl|protein|mol2

> <Gold.Protein.RotatedTorsions>
[ 1303 1298 1297 1294 ] final -142.80 input  179.99 | X-H torsion
[ 2461 2456 2455 2452 ] final   78.44 input   30.03 | X-H torsion
[ 2515 2510 2509 2506 ] final  -66.43 input  -89.99 | X-H torsion
[ 3721 3712 3711 3710 ] final   43.34 input -179.91 | X-H torsion
[ 3841 3832 3831 3830 ] final  -90.94 input -179.91 | X-H torsion
[ 3767 3762 3761 3758 ] final  135.71 input  -89.99 | X-H torsion
[ 2472 2467 2466 2463 ] final -150.66 input  -89.97 | X-H torsion

> <Gold.Protein.ActiveResidues>
 VAL82   VAL86   LEU89   PHE106  VAL107  ASP110  VAL111  MET112  CYS114  THR115 
 CYS181  SER182  ILE183  PHE188  VAL189  ILE190  SER192  SER193  SER196  TRP342 
 PHE345  PHE346  HIS349  VAL350  TYR365  THR369  GLY372  TYR373 

> <Gold.Protein.RotatedAtoms>
    4.5277   -8.5248    4.3176 H   0  0  0  0  0  0  0  0  0  0  0  0  # atno 1303 bound_to 1298
    2.0791   -8.1807    7.5853 H   0  0  0  0  0  0  0  0  0  0  0  0  # atno 2461 bound_to 2456
   -4.9882   -5.4586    9.3266 H   0  0  0  0  0  0  0  0  0  0  0  0  # atno 2472 bound_to 2467
    2.8320   -8.6007    4.4147 H   0  0  0  0  0  0  0  0  0  0  0  0  # atno 2515 bound_to 2510
   -2.5180  -18.0013   13.6050 H   0  0  0  0  0  0  0  0  0  0  0  0  # atno 3721 bound_to 3712
   -3.9088  -23.0509   11.1165 H   0  0  0  0  0  0  0  0  0  0  0  0  # atno 3767 bound_to 3762
    1.8623  -19.6116    8.6973 H   0  0  0  0  0  0  0  0  0  0  0  0  # atno 3841 bound_to 3832
    4.5047  -10.0525    4.8939 LP  0  0  0  0  0  0  0  0  0  0  0  0  # atno 4297 bound_to 1298
    3.3296   -9.5444    3.8801 LP  0  0  0  0  0  0  0  0  0  0  0  0  # atno 4298 bound_to 1298
    0.5008   -8.3454    7.1989 LP  0  0  0  0  0  0  0  0  0  0  0  0  # atno 4299 bound_to 2456
    1.1581   -9.2820    8.3639 LP  0  0  0  0  0  0  0  0  0  0  0  0  # atno 4300 bound_to 2456
    2.2807   -8.9657    5.9075 LP  0  0  0  0  0  0  0  0  0  0  0  0  # atno 4301 bound_to 2510
    2.1839   -7.4326    5.3534 LP  0  0  0  0  0  0  0  0  0  0  0  0  # atno 4302 bound_to 2510
   -3.1229  -17.1798   14.8449 LP  0  0  0  0  0  0  0  0  0  0  0  0  # atno 4306 bound_to 3712
   -3.4977  -16.7637   13.3110 LP  0  0  0  0  0  0  0  0  0  0  0  0  # atno 4307 bound_to 3712
    3.1225  -20.5797    8.4719 LP  0  0  0  0  0  0  0  0  0  0  0  0  # atno 4314 bound_to 3832
    1.9556  -20.9712    9.5451 LP  0  0  0  0  0  0  0  0  0  0  0  0  # atno 4315 bound_to 3832
   -5.1607  -22.9046   10.0781 LP  0  0  0  0  0  0  0  0  0  0  0  0  # atno 4318 bound_to 3762
   -5.0575  -21.9197   11.3766 LP  0  0  0  0  0  0  0  0  0  0  0  0  # atno 4319 bound_to 3762
   -5.0923   -4.9156    7.7901 LP  0  0  0  0  0  0  0  0  0  0  0  0  # atno 4320 bound_to 2467
   -3.6365   -5.0194    8.5226 LP  0  0  0  0  0  0  0  0  0  0  0  0  # atno 4321 bound_to 2467

> <Gold.Score>
     Score     S(PLP)   S(hbond)     S(cho)   S(metal)  DE(clash)   DE(tors)     intcor
     46.24     -43.29       1.00       0.00       0.00       0.00       0.70       1.36

> <Gold.PLP.Fitness>
46.2405

> <Gold.PLP.PLP>
-43.2925

> <Gold.PLP.part.hbond>
-1.0000

> <Gold.PLP.part.metal>
0.0000

> <Gold.PLP.part.buried>
-6.2342

> <Gold.PLP.part.nonpolar>
-37.0832

> <Gold.PLP.part.repulsive>
0.1327

> <Gold.PLP.ligand.clash>
0.0000

> <Gold.PLP.ligand.torsion>
0.7036

> <Gold.PLP.Chemscore.Hbond>
1.0000

> <Gold.PLP.Chemscore.CHOScore>
0.0000

> <Gold.PLP.Chemscore.Metal>
0.0000

> <Gold.Chemscore.Hbonds>
donor molecule, donor type, donor heavy atom, donor atom, acceptor molecule, acceptor atom, score
      P1  H  3712  3721       L1    10  1.00

> <Gold.PLP.Chemscore.Internal.Correction>
1.3553

