#       Name:                EN300-14823_i001
#       Creating user name   fsindt
#       Creation time:       Thu Mar  2 02:47:17 2023


#       File generated by GOLD software.
#

@<TRIPOS>MOLECULE
EN300-14823_i001|acide_1|mol2|11555|dock8
    28    28     1
SMALL
USER_CHARGES


@<TRIPOS>ATOM
      1 C1           0.8008 -15.5874   7.0074 C.3            1 <1>                0.0000
      2 O2           0.8932 -14.2007   7.3401 O.3            1 <1>                0.0000
      3 C3           0.3896 -13.8201   8.5436 C.ar           1 <1>                0.0000
      4 C4           0.3920 -14.7086   9.6096 C.ar           1 <1>                0.0000
      5 C5          -0.1199 -14.3224  10.8335 C.ar           1 <1>                0.0000
      6 C6          -0.1162 -15.2892  11.9895 C.3            1 <1>                0.0000
      7 C7           1.3260 -15.5597  12.4233 C.3            1 <1>                0.0000
      8 C8           1.3284 -16.5036  13.5981 C.2            1 <1>                0.0000
      9 O9           1.9360 -17.5586  13.5313 O.co2          1 <1>                0.0000
     10 O10          0.7227 -16.2124  14.6154 O.co2          1 <1>               -1.0000
     11 C11         -0.6350 -13.0509  10.9994 C.ar           1 <1>                0.0000
     12 C12         -0.6396 -12.1588   9.9364 C.ar           1 <1>                0.0000
     13 O13         -1.1459 -10.9083  10.1003 O.3            1 <1>                0.0000
     14 C14         -1.0513 -10.3363  11.4063 C.3            1 <1>                0.0000
     15 C15         -0.1218 -12.5423   8.7089 C.ar           1 <1>                0.0000
     16 H16          1.2385 -15.7549   6.0234 H              1 <1>                0.0000
     17 H17          1.3399 -16.1759   7.7498 H              1 <1>                0.0000
     18 H18         -0.2466 -15.8891   6.9954 H              1 <1>                0.0000
     19 H19          0.7940 -15.7029   9.4824 H              1 <1>                0.0000
     20 H20         -0.6720 -14.8606  12.8235 H              1 <1>                0.0000
     21 H21         -0.5848 -16.2242  11.6827 H              1 <1>                0.0000
     22 H22          1.8762 -16.0080  11.5960 H              1 <1>                0.0000
     23 H23          1.8013 -14.6217  12.7098 H              1 <1>                0.0000
     24 H24         -1.0346 -12.7513  11.9570 H              1 <1>                0.0000
     25 H25         -1.4917  -9.3392  11.3990 H              1 <1>                0.0000
     26 H26         -1.5868 -10.9647  12.1180 H              1 <1>                0.0000
     27 H27         -0.0034 -10.2685  11.6982 H              1 <1>                0.0000
     28 H28         -0.1245 -11.8494   7.8804 H              1 <1>                0.0000
@<TRIPOS>BOND
    1    1    2 1     
    2    1   16 1     
    3    1   17 1     
    4    1   18 1     
    5    2    3 1     
    6    3    4 ar    
    7    3   15 ar    
    8    4    5 ar    
    9    4   19 1     
   10    5    6 1     
   11    5   11 ar    
   12    6    7 1     
   13    6   20 1     
   14    6   21 1     
   15    7    8 1     
   16    7   22 1     
   17    7   23 1     
   18    8    9 ar    
   19    8   10 ar    
   20   11   12 ar    
   21   11   24 1     
   22   12   13 1     
   23   12   15 ar    
   24   13   14 1     
   25   14   25 1     
   26   14   26 1     
   27   14   27 1     
   28   15   28 1     
@<TRIPOS>SUBSTRUCTURE
      1 ****           1
@<TRIPOS>COMMENT
> <Gold.Version>
2022.2.0

> <Gold.Id.Protein>
3pbl|protein|mol2

> <Gold.Protein.RotatedTorsions>
[ 1303 1298 1297 1294 ] final   58.46 input  179.99 | X-H torsion
[ 2461 2456 2455 2452 ] final  -59.13 input   30.03 | X-H torsion
[ 2515 2510 2509 2506 ] final  -31.20 input  -89.99 | X-H torsion
[ 3721 3712 3711 3710 ] final   39.25 input -179.91 | X-H torsion
[ 3841 3832 3831 3830 ] final  -87.35 input -179.91 | X-H torsion
[ 3767 3762 3761 3758 ] final   -7.24 input  -89.99 | X-H torsion
[ 2472 2467 2466 2463 ] final -136.86 input  -89.97 | X-H torsion

> <Gold.Protein.ActiveResidues>
 VAL82   VAL86   LEU89   PHE106  VAL107  ASP110  VAL111  MET112  CYS114  THR115 
 CYS181  SER182  ILE183  PHE188  VAL189  ILE190  SER192  SER193  SER196  TRP342 
 PHE345  PHE346  HIS349  VAL350  TYR365  THR369  GLY372  TYR373 

> <Gold.Protein.RotatedAtoms>
    3.9871  -10.2711    4.6196 H   0  0  0  0  0  0  0  0  0  0  0  0  # atno 1303 bound_to 1298
    0.3749   -8.5492    7.3586 H   0  0  0  0  0  0  0  0  0  0  0  0  # atno 2461 bound_to 2456
   -4.7756   -5.4635    9.4049 H   0  0  0  0  0  0  0  0  0  0  0  0  # atno 2472 bound_to 2467
    2.7266   -8.0413    4.3786 H   0  0  0  0  0  0  0  0  0  0  0  0  # atno 2515 bound_to 2510
   -2.5049  -18.0152   13.6637 H   0  0  0  0  0  0  0  0  0  0  0  0  # atno 3721 bound_to 3712
   -5.3833  -22.6272   10.1977 H   0  0  0  0  0  0  0  0  0  0  0  0  # atno 3767 bound_to 3762
    1.8245  -19.6259    8.7334 H   0  0  0  0  0  0  0  0  0  0  0  0  # atno 3841 bound_to 3832
    3.5121   -8.9548    3.7782 LP  0  0  0  0  0  0  0  0  0  0  0  0  # atno 4297 bound_to 1298
    4.8630   -8.8951    4.6937 LP  0  0  0  0  0  0  0  0  0  0  0  0  # atno 4298 bound_to 1298
    1.4372   -9.2216    8.4011 LP  0  0  0  0  0  0  0  0  0  0  0  0  # atno 4299 bound_to 2456
    1.9255   -8.0373    7.3884 LP  0  0  0  0  0  0  0  0  0  0  0  0  # atno 4300 bound_to 2456
    2.5243   -9.2389    5.4698 LP  0  0  0  0  0  0  0  0  0  0  0  0  # atno 4301 bound_to 2510
    2.0458   -7.7191    5.8272 LP  0  0  0  0  0  0  0  0  0  0  0  0  # atno 4302 bound_to 2510
   -3.1569  -17.1230   14.8285 LP  0  0  0  0  0  0  0  0  0  0  0  0  # atno 4306 bound_to 3712
   -3.4789  -16.8045   13.2596 LP  0  0  0  0  0  0  0  0  0  0  0  0  # atno 4307 bound_to 3712
    3.1145  -20.5330    8.4351 LP  0  0  0  0  0  0  0  0  0  0  0  0  # atno 4314 bound_to 3832
    2.0073  -21.0014    9.5401 LP  0  0  0  0  0  0  0  0  0  0  0  0  # atno 4315 bound_to 3832
   -4.7484  -22.0086   11.5692 LP  0  0  0  0  0  0  0  0  0  0  0  0  # atno 4318 bound_to 3762
   -3.9959  -23.2393   10.8039 LP  0  0  0  0  0  0  0  0  0  0  0  0  # atno 4319 bound_to 3762
   -5.2635   -4.9822    7.9228 LP  0  0  0  0  0  0  0  0  0  0  0  0  # atno 4320 bound_to 2467
   -3.6778   -4.9479    8.3116 LP  0  0  0  0  0  0  0  0  0  0  0  0  # atno 4321 bound_to 2467

> <Gold.Score>
     Score     S(PLP)   S(hbond)     S(cho)   S(metal)  DE(clash)   DE(tors)     intcor
     48.08     -45.35       1.00       0.00       0.00       0.00       0.81       1.36

> <Gold.PLP.Fitness>
48.0809

> <Gold.PLP.PLP>
-45.3473

> <Gold.PLP.part.hbond>
-1.0000

> <Gold.PLP.part.metal>
0.0000

> <Gold.PLP.part.buried>
-6.7357

> <Gold.PLP.part.nonpolar>
-38.4135

> <Gold.PLP.part.repulsive>
0.1969

> <Gold.PLP.ligand.clash>
0.0000

> <Gold.PLP.ligand.torsion>
0.8108

> <Gold.PLP.Chemscore.Hbond>
1.0000

> <Gold.PLP.Chemscore.CHOScore>
0.0000

> <Gold.PLP.Chemscore.Metal>
0.0000

> <Gold.Chemscore.Hbonds>
donor molecule, donor type, donor heavy atom, donor atom, acceptor molecule, acceptor atom, score
      P1  H  2305  2313       L1    10  1.00

> <Gold.PLP.Chemscore.Internal.Correction>
1.3553

