#       Name:                EN300-14823_i001
#       Creating user name   fsindt
#       Creation time:       Thu Mar  2 02:47:18 2023


#       File generated by GOLD software.
#

@<TRIPOS>MOLECULE
EN300-14823_i001|acide_1|mol2|11555|dock10
    28    28     1
SMALL
USER_CHARGES


@<TRIPOS>ATOM
      1 C1          -1.5880 -11.0690  11.6421 C.3            1 <1>                0.0000
      2 O2          -1.6238 -11.6334  10.3297 O.3            1 <1>                0.0000
      3 C3          -0.7750 -12.6646  10.0783 C.ar           1 <1>                0.0000
      4 C4          -0.4060 -13.5255  11.1022 C.ar           1 <1>                0.0000
      5 C5           0.4570 -14.5741  10.8474 C.ar           1 <1>                0.0000
      6 C6           0.8562 -15.5076  11.9611 C.3            1 <1>                0.0000
      7 C7          -0.3894 -15.9321  12.7418 C.3            1 <1>                0.0000
      8 C8           0.0188 -16.4438  14.0992 C.2            1 <1>                0.0000
      9 O9          -0.7802 -17.0593  14.7843 O.co2          1 <1>                0.0000
     10 O10          1.1480 -16.2422  14.5124 O.co2          1 <1>               -1.0000
     11 C11          0.9543 -14.7685   9.5729 C.ar           1 <1>                0.0000
     12 C12          0.5882 -13.9102   8.5457 C.ar           1 <1>                0.0000
     13 O13          1.0773 -14.1022   7.2923 O.3            1 <1>                0.0000
     14 C14          1.1840 -12.9498   6.4541 C.3            1 <1>                0.0000
     15 C15         -0.2816 -12.8605   8.7978 C.ar           1 <1>                0.0000
     16 H16         -2.3122 -10.2571  11.7083 H              1 <1>                0.0000
     17 H17         -1.8352 -11.8371  12.3749 H              1 <1>                0.0000
     18 H18         -0.5891 -10.6822  11.8441 H              1 <1>                0.0000
     19 H19         -0.7933 -13.3756  12.0992 H              1 <1>                0.0000
     20 H20          1.3393 -16.3895  11.5404 H              1 <1>                0.0000
     21 H21          1.5489 -14.9986  12.6311 H              1 <1>                0.0000
     22 H22         -1.0529 -15.0755  12.8609 H              1 <1>                0.0000
     23 H23         -0.9084 -16.7207  12.1971 H              1 <1>                0.0000
     24 H24          1.6286 -15.5889   9.3762 H              1 <1>                0.0000
     25 H25          1.5871 -13.2420   5.4844 H              1 <1>                0.0000
     26 H26          0.1975 -12.5063   6.3188 H              1 <1>                0.0000
     27 H27          1.8487 -12.2222   6.9196 H              1 <1>                0.0000
     28 H28         -0.5677 -12.1916   7.9996 H              1 <1>                0.0000
@<TRIPOS>BOND
    1    1    2 1     
    2    1   16 1     
    3    1   17 1     
    4    1   18 1     
    5    2    3 1     
    6    3    4 ar    
    7    3   15 ar    
    8    4    5 ar    
    9    4   19 1     
   10    5    6 1     
   11    5   11 ar    
   12    6    7 1     
   13    6   20 1     
   14    6   21 1     
   15    7    8 1     
   16    7   22 1     
   17    7   23 1     
   18    8    9 ar    
   19    8   10 ar    
   20   11   12 ar    
   21   11   24 1     
   22   12   13 1     
   23   12   15 ar    
   24   13   14 1     
   25   14   25 1     
   26   14   26 1     
   27   14   27 1     
   28   15   28 1     
@<TRIPOS>SUBSTRUCTURE
      1 ****           1
@<TRIPOS>COMMENT
> <Gold.Version>
2022.2.0

> <Gold.Id.Protein>
3pbl|protein|mol2

> <Gold.Protein.RotatedTorsions>
[ 1303 1298 1297 1294 ] final  -13.19 input  179.99 | X-H torsion
[ 2461 2456 2455 2452 ] final  -61.38 input   30.03 | X-H torsion
[ 2515 2510 2509 2506 ] final  -89.88 input  -89.99 | X-H torsion
[ 3721 3712 3711 3710 ] final  -39.58 input -179.91 | X-H torsion
[ 3841 3832 3831 3830 ] final  -44.38 input -179.91 | X-H torsion
[ 3767 3762 3761 3758 ] final  -49.79 input  -89.99 | X-H torsion
[ 2472 2467 2466 2463 ] final  -69.23 input  -89.97 | X-H torsion

> <Gold.Protein.ActiveResidues>
 VAL82   VAL86   LEU89   PHE106  VAL107  ASP110  VAL111  MET112  CYS114  THR115 
 CYS181  SER182  ILE183  PHE188  VAL189  ILE190  SER192  SER193  SER196  TRP342 
 PHE345  PHE346  HIS349  VAL350  TYR365  THR369  GLY372  TYR373 

> <Gold.Protein.RotatedAtoms>
    3.3384   -9.6890    3.9430 H   0  0  0  0  0  0  0  0  0  0  0  0  # atno 1303 bound_to 1298
    0.3644   -8.5762    7.3819 H   0  0  0  0  0  0  0  0  0  0  0  0  # atno 2461 bound_to 2456
   -3.8031   -5.2396    9.0806 H   0  0  0  0  0  0  0  0  0  0  0  0  # atno 2472 bound_to 2467
    2.8212   -8.9307    4.6089 H   0  0  0  0  0  0  0  0  0  0  0  0  # atno 2515 bound_to 2510
   -2.6594  -17.5898   14.6663 H   0  0  0  0  0  0  0  0  0  0  0  0  # atno 3721 bound_to 3712
   -5.4995  -22.1459   10.6701 H   0  0  0  0  0  0  0  0  0  0  0  0  # atno 3767 bound_to 3762
    1.5646  -19.9675    9.2002 H   0  0  0  0  0  0  0  0  0  0  0  0  # atno 3841 bound_to 3832
    4.4091   -8.4877    4.2202 LP  0  0  0  0  0  0  0  0  0  0  0  0  # atno 4297 bound_to 1298
    4.6150   -9.9445    4.9286 LP  0  0  0  0  0  0  0  0  0  0  0  0  # atno 4298 bound_to 1298
    1.4723   -9.2095    8.4012 LP  0  0  0  0  0  0  0  0  0  0  0  0  # atno 4299 bound_to 2456
    1.9008   -8.0224    7.3649 LP  0  0  0  0  0  0  0  0  0  0  0  0  # atno 4300 bound_to 2456
    2.1443   -8.6450    6.0669 LP  0  0  0  0  0  0  0  0  0  0  0  0  # atno 4301 bound_to 2510
    2.3310   -7.4232    4.9997 LP  0  0  0  0  0  0  0  0  0  0  0  0  # atno 4302 bound_to 2510
   -3.5669  -16.5622   13.8306 LP  0  0  0  0  0  0  0  0  0  0  0  0  # atno 4306 bound_to 3712
   -2.8904  -17.8564   13.0999 LP  0  0  0  0  0  0  0  0  0  0  0  0  # atno 4307 bound_to 3712
    2.7800  -19.9855    8.1520 LP  0  0  0  0  0  0  0  0  0  0  0  0  # atno 4314 bound_to 3832
    2.6419  -21.1543    9.2840 LP  0  0  0  0  0  0  0  0  0  0  0  0  # atno 4315 bound_to 3832
   -4.1963  -22.4097   11.6183 LP  0  0  0  0  0  0  0  0  0  0  0  0  # atno 4318 bound_to 3762
   -4.4318  -23.3193   10.2826 LP  0  0  0  0  0  0  0  0  0  0  0  0  # atno 4319 bound_to 3762
   -5.4215   -5.3493    8.8930 LP  0  0  0  0  0  0  0  0  0  0  0  0  # atno 4320 bound_to 2467
   -4.4922   -4.8047    7.6656 LP  0  0  0  0  0  0  0  0  0  0  0  0  # atno 4321 bound_to 2467

> <Gold.Score>
     Score     S(PLP)   S(hbond)     S(cho)   S(metal)  DE(clash)   DE(tors)     intcor
     48.27     -44.23       1.66       0.00       0.00       0.00       1.15       1.36

> <Gold.PLP.Fitness>
48.2652

> <Gold.PLP.PLP>
-44.2342

> <Gold.PLP.part.hbond>
-2.0000

> <Gold.PLP.part.metal>
0.0000

> <Gold.PLP.part.buried>
-6.4063

> <Gold.PLP.part.nonpolar>
-37.6817

> <Gold.PLP.part.repulsive>
0.1677

> <Gold.PLP.ligand.clash>
0.0000

> <Gold.PLP.ligand.torsion>
1.1462

> <Gold.PLP.Chemscore.Hbond>
1.6560

> <Gold.PLP.Chemscore.CHOScore>
0.0000

> <Gold.PLP.Chemscore.Metal>
0.0000

> <Gold.Chemscore.Hbonds>
donor molecule, donor type, donor heavy atom, donor atom, acceptor molecule, acceptor atom, score
      P1  H  2305  2313       L1    10  1.00
      P1  H  3712  3721       L1     9  0.66

> <Gold.PLP.Chemscore.Internal.Correction>
1.3553

