#       Name:                EN300-14823_i001
#       Creating user name   fsindt
#       Creation time:       Thu Mar  2 02:47:25 2023


#       File generated by GOLD software.
#

@<TRIPOS>MOLECULE
EN300-14823_i001|acide_1|mol2|11555|dock20
    28    28     1
SMALL
USER_CHARGES


@<TRIPOS>ATOM
      1 C1           1.0618 -13.1828   7.1801 C.3            1 <1>                0.0000
      2 O2           1.3901 -13.9604   8.3333 O.3            1 <1>                0.0000
      3 C3           0.6203 -13.7798   9.4386 C.ar           1 <1>                0.0000
      4 C4           0.4605 -14.8141  10.3500 C.ar           1 <1>                0.0000
      5 C5          -0.3220 -14.6313  11.4740 C.ar           1 <1>                0.0000
      6 C6          -0.4939 -15.7561  12.4621 C.3            1 <1>                0.0000
      7 C7           0.8501 -16.0606  13.1270 C.3            1 <1>                0.0000
      8 C8           0.6864 -17.2107  14.0870 C.2            1 <1>                0.0000
      9 O9           1.6275 -17.5703  14.7737 O.co2          1 <1>                0.0000
     10 O10         -0.3872 -17.7816  14.1770 O.co2          1 <1>               -1.0000
     11 C11         -0.9469 -13.4187  11.6938 C.ar           1 <1>                0.0000
     12 C12         -0.7902 -12.3813  10.7854 C.ar           1 <1>                0.0000
     13 O13         -1.4047 -11.1888  11.0023 O.3            1 <1>                0.0000
     14 C14         -1.7645 -10.4252   9.8493 C.3            1 <1>                0.0000
     15 C15         -0.0014 -12.5606   9.6595 C.ar           1 <1>                0.0000
     16 H16          1.7519 -13.4232   6.3714 H              1 <1>                0.0000
     17 H17          0.0425 -13.4092   6.8673 H              1 <1>                0.0000
     18 H18          1.1407 -12.1229   7.4222 H              1 <1>                0.0000
     19 H19          0.9480 -15.7628  10.1803 H              1 <1>                0.0000
     20 H20         -1.2177 -15.4640  13.2229 H              1 <1>                0.0000
     21 H21         -0.8516 -16.6449  11.9423 H              1 <1>                0.0000
     22 H22          1.5813 -16.3260  12.3635 H              1 <1>                0.0000
     23 H23          1.1947 -15.1804  13.6697 H              1 <1>                0.0000
     24 H24         -1.5581 -13.2782  12.5731 H              1 <1>                0.0000
     25 H25         -2.2457  -9.4987  10.1628 H              1 <1>                0.0000
     26 H26         -0.8687 -10.1926   9.2735 H              1 <1>                0.0000
     27 H27         -2.4536 -11.0017   9.2322 H              1 <1>                0.0000
     28 H28          0.1218 -11.7545   8.9514 H              1 <1>                0.0000
@<TRIPOS>BOND
    1    1    2 1     
    2    1   16 1     
    3    1   17 1     
    4    1   18 1     
    5    2    3 1     
    6    3    4 ar    
    7    3   15 ar    
    8    4    5 ar    
    9    4   19 1     
   10    5    6 1     
   11    5   11 ar    
   12    6    7 1     
   13    6   20 1     
   14    6   21 1     
   15    7    8 1     
   16    7   22 1     
   17    7   23 1     
   18    8    9 ar    
   19    8   10 ar    
   20   11   12 ar    
   21   11   24 1     
   22   12   13 1     
   23   12   15 ar    
   24   13   14 1     
   25   14   25 1     
   26   14   26 1     
   27   14   27 1     
   28   15   28 1     
@<TRIPOS>SUBSTRUCTURE
      1 ****           1
@<TRIPOS>COMMENT
> <Gold.Version>
2022.2.0

> <Gold.Id.Protein>
3pbl|protein|mol2

> <Gold.Protein.RotatedTorsions>
[ 1303 1298 1297 1294 ] final   72.06 input  179.99 | X-H torsion
[ 2461 2456 2455 2452 ] final  119.66 input   30.03 | X-H torsion
[ 2515 2510 2509 2506 ] final -108.88 input  -89.99 | X-H torsion
[ 3721 3712 3711 3710 ] final   12.27 input -179.91 | X-H torsion
[ 3841 3832 3831 3830 ] final -104.02 input -179.91 | X-H torsion
[ 3767 3762 3761 3758 ] final  -49.16 input  -89.99 | X-H torsion
[ 2472 2467 2466 2463 ] final -178.51 input  -89.97 | X-H torsion

> <Gold.Protein.ActiveResidues>
 VAL82   VAL86   LEU89   PHE106  VAL107  ASP110  VAL111  MET112  CYS114  THR115 
 CYS181  SER182  ILE183  PHE188  VAL189  ILE190  SER192  SER193  SER196  TRP342 
 PHE345  PHE346  HIS349  VAL350  TYR365  THR369  GLY372  TYR373 

> <Gold.Protein.RotatedAtoms>
    4.1741  -10.2379    4.7367 H   0  0  0  0  0  0  0  0  0  0  0  0  # atno 1303 bound_to 1298
    2.1227   -8.6417    8.0611 H   0  0  0  0  0  0  0  0  0  0  0  0  # atno 2461 bound_to 2456
   -5.3327   -5.3928    9.0386 H   0  0  0  0  0  0  0  0  0  0  0  0  # atno 2472 bound_to 2467
    2.7649   -9.1277    4.8430 H   0  0  0  0  0  0  0  0  0  0  0  0  # atno 2515 bound_to 2510
   -2.4708  -18.0120   14.0665 H   0  0  0  0  0  0  0  0  0  0  0  0  # atno 3721 bound_to 3712
   -5.5010  -22.1517   10.6616 H   0  0  0  0  0  0  0  0  0  0  0  0  # atno 3767 bound_to 3762
    2.0148  -19.5817    8.5760 H   0  0  0  0  0  0  0  0  0  0  0  0  # atno 3841 bound_to 3832
    3.4103   -9.1534    3.7845 LP  0  0  0  0  0  0  0  0  0  0  0  0  # atno 4297 bound_to 1298
    4.7777   -8.7298    4.5703 LP  0  0  0  0  0  0  0  0  0  0  0  0  # atno 4298 bound_to 1298
    1.0358   -7.9902    7.0308 LP  0  0  0  0  0  0  0  0  0  0  0  0  # atno 4299 bound_to 2456
    0.5795   -9.1763    8.0563 LP  0  0  0  0  0  0  0  0  0  0  0  0  # atno 4300 bound_to 2456
    2.0679   -8.3446    6.0946 LP  0  0  0  0  0  0  0  0  0  0  0  0  # atno 4301 bound_to 2510
    2.4638   -7.5265    4.7379 LP  0  0  0  0  0  0  0  0  0  0  0  0  # atno 4302 bound_to 2510
   -3.3649  -16.7939   14.6093 LP  0  0  0  0  0  0  0  0  0  0  0  0  # atno 4306 bound_to 3712
   -3.3101  -17.1372   13.0138 LP  0  0  0  0  0  0  0  0  0  0  0  0  # atno 4307 bound_to 3712
    3.1228  -20.7422    8.6172 LP  0  0  0  0  0  0  0  0  0  0  0  0  # atno 4314 bound_to 3832
    1.7792  -20.8433    9.5398 LP  0  0  0  0  0  0  0  0  0  0  0  0  # atno 4315 bound_to 3832
   -4.2032  -22.4023   11.6207 LP  0  0  0  0  0  0  0  0  0  0  0  0  # atno 4318 bound_to 3762
   -4.4235  -23.3209   10.2887 LP  0  0  0  0  0  0  0  0  0  0  0  0  # atno 4319 bound_to 3762
   -4.6675   -4.8222    7.6608 LP  0  0  0  0  0  0  0  0  0  0  0  0  # atno 4320 bound_to 2467
   -3.7169   -5.1786    8.9398 LP  0  0  0  0  0  0  0  0  0  0  0  0  # atno 4321 bound_to 2467

> <Gold.Score>
     Score     S(PLP)   S(hbond)     S(cho)   S(metal)  DE(clash)   DE(tors)     intcor
     46.31     -43.85       0.90       0.00       0.00       0.00       0.79       1.36

> <Gold.PLP.Fitness>
46.3078

> <Gold.PLP.PLP>
-43.8457

> <Gold.PLP.part.hbond>
-1.0000

> <Gold.PLP.part.metal>
0.0000

> <Gold.PLP.part.buried>
-6.6821

> <Gold.PLP.part.nonpolar>
-36.8639

> <Gold.PLP.part.repulsive>
0.1951

> <Gold.PLP.ligand.clash>
0.0000

> <Gold.PLP.ligand.torsion>
0.7906

> <Gold.PLP.Chemscore.Hbond>
0.8960

> <Gold.PLP.Chemscore.CHOScore>
0.0000

> <Gold.PLP.Chemscore.Metal>
0.0000

> <Gold.Chemscore.Hbonds>
donor molecule, donor type, donor heavy atom, donor atom, acceptor molecule, acceptor atom, score
      P1  H  3712  3721       L1    10  0.90

> <Gold.PLP.Chemscore.Internal.Correction>
1.3553

