#       Name:                EN300-14823_i001
#       Creating user name   fsindt
#       Creation time:       Thu Mar  2 02:47:16 2023


#       File generated by GOLD software.
#

@<TRIPOS>MOLECULE
EN300-14823_i001|acide_1|mol2|11555|dock7
    28    28     1
SMALL
USER_CHARGES


@<TRIPOS>ATOM
      1 C1           1.1116 -12.0855   7.1076 C.3            1 <1>                0.0000
      2 O2           0.7672 -13.2869   7.8007 O.3            1 <1>                0.0000
      3 C3           0.1416 -13.1498   8.9994 C.ar           1 <1>                0.0000
      4 C4           0.2260 -14.1608   9.9463 C.ar           1 <1>                0.0000
      5 C5          -0.4098 -14.0222  11.1652 C.ar           1 <1>                0.0000
      6 C6          -0.3166 -15.1216  12.1917 C.3            1 <1>                0.0000
      7 C7           1.1347 -15.5932  12.3034 C.3            1 <1>                0.0000
      8 C8           1.3511 -16.2383  13.6481 C.2            1 <1>                0.0000
      9 O9           2.3976 -16.8171  13.8853 O.co2          1 <1>                0.0000
     10 O10          0.4795 -16.1814  14.4988 O.co2          1 <1>               -1.0000
     11 C11         -1.1307 -12.8769  11.4446 C.ar           1 <1>                0.0000
     12 C12         -1.2181 -11.8631  10.5010 C.ar           1 <1>                0.0000
     13 O13         -1.9269 -10.7368  10.7766 O.3            1 <1>                0.0000
     14 C14         -2.4236  -9.9939   9.6616 C.3            1 <1>                0.0000
     15 C15         -0.5766 -11.9977   9.2793 C.ar           1 <1>                0.0000
     16 H16          1.6039 -12.3366   6.1681 H              1 <1>                0.0000
     17 H17          0.2073 -11.5126   6.9022 H              1 <1>                0.0000
     18 H18          1.7862 -11.4912   7.7239 H              1 <1>                0.0000
     19 H19          0.7889 -15.0568   9.7302 H              1 <1>                0.0000
     20 H20         -0.6518 -14.7456  13.1583 H              1 <1>                0.0000
     21 H21         -0.9476 -15.9568  11.8879 H              1 <1>                0.0000
     22 H22          1.3432 -16.3169  11.5155 H              1 <1>                0.0000
     23 H23          1.8035 -14.7389  12.1983 H              1 <1>                0.0000
     24 H24         -1.6268 -12.7709  12.3981 H              1 <1>                0.0000
     25 H25         -2.9694  -9.1214  10.0205 H              1 <1>                0.0000
     26 H26         -1.5889  -9.6699   9.0399 H              1 <1>                0.0000
     27 H27         -3.0914 -10.6237   9.0738 H              1 <1>                0.0000
     28 H28         -0.6434 -11.2098   8.5437 H              1 <1>                0.0000
@<TRIPOS>BOND
    1    1    2 1     
    2    1   16 1     
    3    1   17 1     
    4    1   18 1     
    5    2    3 1     
    6    3    4 ar    
    7    3   15 ar    
    8    4    5 ar    
    9    4   19 1     
   10    5    6 1     
   11    5   11 ar    
   12    6    7 1     
   13    6   20 1     
   14    6   21 1     
   15    7    8 1     
   16    7   22 1     
   17    7   23 1     
   18    8    9 ar    
   19    8   10 ar    
   20   11   12 ar    
   21   11   24 1     
   22   12   13 1     
   23   12   15 ar    
   24   13   14 1     
   25   14   25 1     
   26   14   26 1     
   27   14   27 1     
   28   15   28 1     
@<TRIPOS>SUBSTRUCTURE
      1 ****           1
@<TRIPOS>COMMENT
> <Gold.Version>
2022.2.0

> <Gold.Id.Protein>
3pbl|protein|mol2

> <Gold.Protein.RotatedTorsions>
[ 1303 1298 1297 1294 ] final  107.58 input  179.99 | X-H torsion
[ 2461 2456 2455 2452 ] final   12.86 input   30.03 | X-H torsion
[ 2515 2510 2509 2506 ] final  -65.59 input  -89.99 | X-H torsion
[ 3721 3712 3711 3710 ] final   54.85 input -179.91 | X-H torsion
[ 3841 3832 3831 3830 ] final  -60.45 input -179.91 | X-H torsion
[ 3767 3762 3761 3758 ] final  -43.43 input  -89.99 | X-H torsion
[ 2472 2467 2466 2463 ] final -113.69 input  -89.97 | X-H torsion

> <Gold.Protein.ActiveResidues>
 VAL82   VAL86   LEU89   PHE106  VAL107  ASP110  VAL111  MET112  CYS114  THR115 
 CYS181  SER182  ILE183  PHE188  VAL189  ILE190  SER192  SER193  SER196  TRP342 
 PHE345  PHE346  HIS349  VAL350  TYR365  THR369  GLY372  TYR373 

> <Gold.Protein.RotatedAtoms>
    4.6228   -9.9350    4.9309 H   0  0  0  0  0  0  0  0  0  0  0  0  # atno 1303 bound_to 1298
    1.2447   -7.9357    7.0493 H   0  0  0  0  0  0  0  0  0  0  0  0  # atno 2461 bound_to 2456
   -4.3990   -5.4289    9.4240 H   0  0  0  0  0  0  0  0  0  0  0  0  # atno 2472 bound_to 2467
    2.8311   -8.5876    4.4100 H   0  0  0  0  0  0  0  0  0  0  0  0  # atno 2515 bound_to 2510
   -2.5655  -17.9427   13.4485 H   0  0  0  0  0  0  0  0  0  0  0  0  # atno 3721 bound_to 3712
   -5.5097  -22.2071   10.5858 H   0  0  0  0  0  0  0  0  0  0  0  0  # atno 3767 bound_to 3762
    1.6155  -19.8078    9.0257 H   0  0  0  0  0  0  0  0  0  0  0  0  # atno 3841 bound_to 3832
    3.3401   -9.7004    3.9480 LP  0  0  0  0  0  0  0  0  0  0  0  0  # atno 4297 bound_to 1298
    4.3991   -8.4858    4.2125 LP  0  0  0  0  0  0  0  0  0  0  0  0  # atno 4298 bound_to 1298
    0.4539   -9.0753    7.9116 LP  0  0  0  0  0  0  0  0  0  0  0  0  # atno 4299 bound_to 2456
    2.0392   -8.7970    8.1870 LP  0  0  0  0  0  0  0  0  0  0  0  0  # atno 4300 bound_to 2456
    2.2862   -8.9756    5.8994 LP  0  0  0  0  0  0  0  0  0  0  0  0  # atno 4301 bound_to 2510
    2.1792   -7.4358    5.3662 LP  0  0  0  0  0  0  0  0  0  0  0  0  # atno 4302 bound_to 2510
   -3.0266  -17.3447   14.8654 LP  0  0  0  0  0  0  0  0  0  0  0  0  # atno 4306 bound_to 3712
   -3.5392  -16.6664   13.4712 LP  0  0  0  0  0  0  0  0  0  0  0  0  # atno 4307 bound_to 3712
    2.9523  -20.1791    8.2187 LP  0  0  0  0  0  0  0  0  0  0  0  0  # atno 4314 bound_to 3832
    2.4110  -21.1452    9.4189 LP  0  0  0  0  0  0  0  0  0  0  0  0  # atno 4315 bound_to 3832
   -4.2679  -22.3360   11.6384 LP  0  0  0  0  0  0  0  0  0  0  0  0  # atno 4318 bound_to 3762
   -4.3501  -23.3318   10.3468 LP  0  0  0  0  0  0  0  0  0  0  0  0  # atno 4319 bound_to 3762
   -5.4571   -5.1112    8.2215 LP  0  0  0  0  0  0  0  0  0  0  0  0  # atno 4320 bound_to 2467
   -3.8607   -4.8535    7.9938 LP  0  0  0  0  0  0  0  0  0  0  0  0  # atno 4321 bound_to 2467

> <Gold.Score>
     Score     S(PLP)   S(hbond)     S(cho)   S(metal)  DE(clash)   DE(tors)     intcor
     50.37     -48.10       1.00       0.00       0.00       0.00       1.04       1.36

> <Gold.PLP.Fitness>
50.3709

> <Gold.PLP.PLP>
-48.1024

> <Gold.PLP.part.hbond>
-1.0000

> <Gold.PLP.part.metal>
0.0000

> <Gold.PLP.part.buried>
-7.2966

> <Gold.PLP.part.nonpolar>
-40.6523

> <Gold.PLP.part.repulsive>
0.1345

> <Gold.PLP.ligand.clash>
0.0000

> <Gold.PLP.ligand.torsion>
1.0433

> <Gold.PLP.Chemscore.Hbond>
1.0000

> <Gold.PLP.Chemscore.CHOScore>
0.0000

> <Gold.PLP.Chemscore.Metal>
0.0000

> <Gold.Chemscore.Hbonds>
donor molecule, donor type, donor heavy atom, donor atom, acceptor molecule, acceptor atom, score
      P1  H  2305  2313       L1    10  1.00

> <Gold.PLP.Chemscore.Internal.Correction>
1.3553

