#       Name:                EN300-14823_i001
#       Creating user name   fsindt
#       Creation time:       Thu Mar  2 02:47:15 2023


#       File generated by GOLD software.
#

@<TRIPOS>MOLECULE
EN300-14823_i001|acide_1|mol2|11555|dock5
    28    28     1
SMALL
USER_CHARGES


@<TRIPOS>ATOM
      1 C1           1.0628 -14.4849   7.1720 C.3            1 <1>                0.0000
      2 O2           0.2275 -13.3948   7.5673 O.3            1 <1>                0.0000
      3 C3          -0.1453 -13.3453   8.8732 C.ar           1 <1>                0.0000
      4 C4           0.2813 -14.3284   9.7548 C.ar           1 <1>                0.0000
      5 C5          -0.0974 -14.2788  11.0828 C.ar           1 <1>                0.0000
      6 C6           0.3673 -15.3477  12.0381 C.3            1 <1>                0.0000
      7 C7          -0.5819 -15.4081  13.2366 C.3            1 <1>                0.0000
      8 C8          -0.0622 -16.4063  14.2389 C.2            1 <1>                0.0000
      9 O9           1.0687 -16.2946  14.6804 O.co2          1 <1>                0.0000
     10 O10         -0.7729 -17.3256  14.6084 O.co2          1 <1>               -1.0000
     11 C11         -0.9011 -13.2504  11.5364 C.ar           1 <1>                0.0000
     12 C12         -1.3303 -12.2649  10.6586 C.ar           1 <1>                0.0000
     13 O13         -2.1205 -11.2535  11.1054 O.3            1 <1>                0.0000
     14 C14         -3.0343 -10.6815  10.1675 C.3            1 <1>                0.0000
     15 C15         -0.9474 -12.3097   9.3269 C.ar           1 <1>                0.0000
     16 H16          1.2854 -14.4047   6.1080 H              1 <1>                0.0000
     17 H17          1.9920 -14.4555   7.7409 H              1 <1>                0.0000
     18 H18          0.5478 -15.4259   7.3656 H              1 <1>                0.0000
     19 H19          0.9096 -15.1332   9.4027 H              1 <1>                0.0000
     20 H20          0.3727 -16.3119  11.5298 H              1 <1>                0.0000
     21 H21          1.3742 -15.1134  12.3835 H              1 <1>                0.0000
     22 H22         -0.6429 -14.4242  13.7017 H              1 <1>                0.0000
     23 H23         -1.5728 -15.7130  12.9003 H              1 <1>                0.0000
     24 H24         -1.1958 -13.2137  12.5747 H              1 <1>                0.0000
     25 H25         -3.6024  -9.8872  10.6519 H              1 <1>                0.0000
     26 H26         -2.4794 -10.2692   9.3246 H              1 <1>                0.0000
     27 H27         -3.7181 -11.4515   9.8105 H              1 <1>                0.0000
     28 H28         -1.2804 -11.5437   8.6423 H              1 <1>                0.0000
@<TRIPOS>BOND
    1    1    2 1     
    2    1   16 1     
    3    1   17 1     
    4    1   18 1     
    5    2    3 1     
    6    3    4 ar    
    7    3   15 ar    
    8    4    5 ar    
    9    4   19 1     
   10    5    6 1     
   11    5   11 ar    
   12    6    7 1     
   13    6   20 1     
   14    6   21 1     
   15    7    8 1     
   16    7   22 1     
   17    7   23 1     
   18    8    9 ar    
   19    8   10 ar    
   20   11   12 ar    
   21   11   24 1     
   22   12   13 1     
   23   12   15 ar    
   24   13   14 1     
   25   14   25 1     
   26   14   26 1     
   27   14   27 1     
   28   15   28 1     
@<TRIPOS>SUBSTRUCTURE
      1 ****           1
@<TRIPOS>COMMENT
> <Gold.Version>
2022.2.0

> <Gold.Id.Protein>
3pbl|protein|mol2

> <Gold.Protein.RotatedTorsions>
[ 1303 1298 1297 1294 ] final   19.02 input  179.99 | X-H torsion
[ 2461 2456 2455 2452 ] final   -8.54 input   30.03 | X-H torsion
[ 2515 2510 2509 2506 ] final  105.57 input  -89.99 | X-H torsion
[ 3721 3712 3711 3710 ] final  -16.91 input -179.91 | X-H torsion
[ 3841 3832 3831 3830 ] final    1.25 input -179.91 | X-H torsion
[ 3767 3762 3761 3758 ] final  141.81 input  -89.99 | X-H torsion
[ 2472 2467 2466 2463 ] final   28.73 input  -89.97 | X-H torsion

> <Gold.Protein.ActiveResidues>
 VAL82   VAL86   LEU89   PHE106  VAL107  ASP110  VAL111  MET112  CYS114  THR115 
 CYS181  SER182  ILE183  PHE188  VAL189  ILE190  SER192  SER193  SER196  TRP342 
 PHE345  PHE346  HIS349  VAL350  TYR365  THR369  GLY372  TYR373 

> <Gold.Protein.RotatedAtoms>
    3.5221  -10.0887    4.2257 H   0  0  0  0  0  0  0  0  0  0  0  0  # atno 1303 bound_to 1298
    0.9107   -8.0403    7.0373 H   0  0  0  0  0  0  0  0  0  0  0  0  # atno 2461 bound_to 2456
   -4.1474   -4.8053    7.7704 H   0  0  0  0  0  0  0  0  0  0  0  0  # atno 2472 bound_to 2467
    2.0288   -7.9449    5.9832 H   0  0  0  0  0  0  0  0  0  0  0  0  # atno 2515 bound_to 2510
   -2.5400  -17.8306   14.4573 H   0  0  0  0  0  0  0  0  0  0  0  0  # atno 3721 bound_to 3712
   -3.9070  -22.9880   11.1947 H   0  0  0  0  0  0  0  0  0  0  0  0  # atno 3767 bound_to 3762
    1.7477  -20.5009    9.5644 H   0  0  0  0  0  0  0  0  0  0  0  0  # atno 3841 bound_to 3832
    3.9720   -8.5454    3.9388 LP  0  0  0  0  0  0  0  0  0  0  0  0  # atno 4297 bound_to 1298
    4.8683   -9.4869    4.9271 LP  0  0  0  0  0  0  0  0  0  0  0  0  # atno 4298 bound_to 1298
    0.6759   -9.2241    8.1377 LP  0  0  0  0  0  0  0  0  0  0  0  0  # atno 4299 bound_to 2456
    2.1511   -8.5436    7.9729 LP  0  0  0  0  0  0  0  0  0  0  0  0  # atno 4300 bound_to 2456
    2.6343   -7.8004    4.4738 LP  0  0  0  0  0  0  0  0  0  0  0  0  # atno 4301 bound_to 2510
    2.6338   -9.2540    5.2178 LP  0  0  0  0  0  0  0  0  0  0  0  0  # atno 4302 bound_to 2510
   -3.5208  -16.5850   14.2034 LP  0  0  0  0  0  0  0  0  0  0  0  0  # atno 4306 bound_to 3712
   -3.0744  -17.5556   12.9684 LP  0  0  0  0  0  0  0  0  0  0  0  0  # atno 4307 bound_to 3712
    2.1258  -19.6503    8.2569 LP  0  0  0  0  0  0  0  0  0  0  0  0  # atno 4314 bound_to 3832
    3.0847  -20.8733    8.7583 LP  0  0  0  0  0  0  0  0  0  0  0  0  # atno 4315 bound_to 3832
   -5.0877  -22.9724   10.0666 LP  0  0  0  0  0  0  0  0  0  0  0  0  # atno 4318 bound_to 3762
   -5.1324  -21.9147   11.3099 LP  0  0  0  0  0  0  0  0  0  0  0  0  # atno 4319 bound_to 3762
   -4.0607   -5.3490    9.3077 LP  0  0  0  0  0  0  0  0  0  0  0  0  # atno 4320 bound_to 2467
   -5.5087   -5.2392    8.5609 LP  0  0  0  0  0  0  0  0  0  0  0  0  # atno 4321 bound_to 2467

> <Gold.Score>
     Score     S(PLP)   S(hbond)     S(cho)   S(metal)  DE(clash)   DE(tors)     intcor
     49.49     -46.05       1.74       0.00       0.00       1.69       0.72       1.36

> <Gold.PLP.Fitness>
49.4861

> <Gold.PLP.PLP>
-46.0544

> <Gold.PLP.part.hbond>
-2.0000

> <Gold.PLP.part.metal>
0.0000

> <Gold.PLP.part.buried>
-5.9822

> <Gold.PLP.part.nonpolar>
-38.6344

> <Gold.PLP.part.repulsive>
0.1131

> <Gold.PLP.ligand.clash>
1.6947

> <Gold.PLP.ligand.torsion>
0.7185

> <Gold.PLP.Chemscore.Hbond>
1.7360

> <Gold.PLP.Chemscore.CHOScore>
0.0000

> <Gold.PLP.Chemscore.Metal>
0.0000

> <Gold.Chemscore.Hbonds>
donor molecule, donor type, donor heavy atom, donor atom, acceptor molecule, acceptor atom, score
      P1  H  2305  2313       L1     9  1.00
      P1  H  3712  3721       L1    10  0.74

> <Gold.PLP.Chemscore.Internal.Correction>
1.3553

