#       Name:                EN300-14823_i001
#       Creating user name   fsindt
#       Creation time:       Thu Mar  2 02:47:13 2023


#       File generated by GOLD software.
#

@<TRIPOS>MOLECULE
EN300-14823_i001|acide_1|mol2|11555|dock1
    28    28     1
SMALL
USER_CHARGES


@<TRIPOS>ATOM
      1 C1          -2.5595 -10.4178   9.6149 C.3            1 <1>                0.0000
      2 O2          -1.8014 -11.1250  10.5985 O.3            1 <1>                0.0000
      3 C3          -0.9932 -12.1231  10.1543 C.ar           1 <1>                0.0000
      4 C4          -0.7259 -13.2145  10.9687 C.ar           1 <1>                0.0000
      5 C5           0.0958 -14.2297  10.5178 C.ar           1 <1>                0.0000
      6 C6           0.3845 -15.4137  11.4042 C.3            1 <1>                0.0000
      7 C7          -0.0920 -15.1138  12.8269 C.3            1 <1>                0.0000
      8 C8           0.1089 -16.3320  13.6911 C.2            1 <1>                0.0000
      9 O9           0.9076 -16.3013  14.6118 O.co2          1 <1>                0.0000
     10 O10         -0.5272 -17.3482  13.4696 O.co2          1 <1>               -1.0000
     11 C11          0.6530 -14.1613   9.2551 C.ar           1 <1>                0.0000
     12 C12          0.3887 -13.0720   8.4369 C.ar           1 <1>                0.0000
     13 O13          0.9366 -13.0055   7.1951 O.3            1 <1>                0.0000
     14 C14          1.0932 -11.7050   6.6240 C.3            1 <1>                0.0000
     15 C15         -0.4396 -12.0546   8.8852 C.ar           1 <1>                0.0000
     16 H16         -3.1604  -9.6501  10.1022 H              1 <1>                0.0000
     17 H17         -1.8816  -9.9500   8.9009 H              1 <1>                0.0000
     18 H18         -3.2146 -11.1142   9.0913 H              1 <1>                0.0000
     19 H19         -1.1602 -13.2702  11.9560 H              1 <1>                0.0000
     20 H20         -0.1398 -16.2898  11.0225 H              1 <1>                0.0000
     21 H21          1.4571 -15.6076  11.4136 H              1 <1>                0.0000
     22 H22          0.4813 -14.2810  13.2341 H              1 <1>                0.0000
     23 H23         -1.1498 -14.8520  12.8082 H              1 <1>                0.0000
     24 H24          1.2950 -14.9560   8.9048 H              1 <1>                0.0000
     25 H25          1.5406 -11.7944   5.6340 H              1 <1>                0.0000
     26 H26          0.1180 -11.2252   6.5399 H              1 <1>                0.0000
     27 H27          1.7403 -11.1034   7.2622 H              1 <1>                0.0000
     28 H28         -0.6466 -11.2061   8.2499 H              1 <1>                0.0000
@<TRIPOS>BOND
    1    1    2 1     
    2    1   16 1     
    3    1   17 1     
    4    1   18 1     
    5    2    3 1     
    6    3    4 ar    
    7    3   15 ar    
    8    4    5 ar    
    9    4   19 1     
   10    5    6 1     
   11    5   11 ar    
   12    6    7 1     
   13    6   20 1     
   14    6   21 1     
   15    7    8 1     
   16    7   22 1     
   17    7   23 1     
   18    8    9 ar    
   19    8   10 ar    
   20   11   12 ar    
   21   11   24 1     
   22   12   13 1     
   23   12   15 ar    
   24   13   14 1     
   25   14   25 1     
   26   14   26 1     
   27   14   27 1     
   28   15   28 1     
@<TRIPOS>SUBSTRUCTURE
      1 ****           1
@<TRIPOS>COMMENT
> <Gold.Version>
2022.2.0

> <Gold.Id.Protein>
3pbl|protein|mol2

> <Gold.Protein.RotatedTorsions>
[ 1303 1298 1297 1294 ] final   11.59 input  179.99 | X-H torsion
[ 2461 2456 2455 2452 ] final -137.83 input   30.03 | X-H torsion
[ 2515 2510 2509 2506 ] final -171.10 input  -89.99 | X-H torsion
[ 3721 3712 3711 3710 ] final   30.41 input -179.91 | X-H torsion
[ 3841 3832 3831 3830 ] final   80.22 input -179.91 | X-H torsion
[ 3767 3762 3761 3758 ] final  178.21 input  -89.99 | X-H torsion
[ 2472 2467 2466 2463 ] final  114.93 input  -89.97 | X-H torsion

> <Gold.Protein.ActiveResidues>
 VAL82   VAL86   LEU89   PHE106  VAL107  ASP110  VAL111  MET112  CYS114  THR115 
 CYS181  SER182  ILE183  PHE188  VAL189  ILE190  SER192  SER193  SER196  TRP342 
 PHE345  PHE346  HIS349  VAL350  TYR365  THR369  GLY372  TYR373 

> <Gold.Protein.RotatedAtoms>
    3.4602  -10.0124    4.1531 H   0  0  0  0  0  0  0  0  0  0  0  0  # atno 1303 bound_to 1298
    0.7988   -9.2630    8.2196 H   0  0  0  0  0  0  0  0  0  0  0  0  # atno 2461 bound_to 2456
   -5.3783   -5.0467    8.0645 H   0  0  0  0  0  0  0  0  0  0  0  0  # atno 2472 bound_to 2467
    2.3852   -9.1212    5.7397 H   0  0  0  0  0  0  0  0  0  0  0  0  # atno 2515 bound_to 2510
   -2.4833  -18.0324   13.7944 H   0  0  0  0  0  0  0  0  0  0  0  0  # atno 3721 bound_to 3712
   -4.0787  -22.5548   11.5548 H   0  0  0  0  0  0  0  0  0  0  0  0  # atno 3767 bound_to 3762
    2.7315  -20.9492    9.3567 H   0  0  0  0  0  0  0  0  0  0  0  0  # atno 3841 bound_to 3832
    4.0737   -8.5074    3.9948 LP  0  0  0  0  0  0  0  0  0  0  0  0  # atno 4297 bound_to 1298
    4.8285   -9.6013    4.9438 LP  0  0  0  0  0  0  0  0  0  0  0  0  # atno 4298 bound_to 1298
    2.1611   -8.4340    7.8670 LP  0  0  0  0  0  0  0  0  0  0  0  0  # atno 4299 bound_to 2456
    0.7777   -8.1113    7.0617 LP  0  0  0  0  0  0  0  0  0  0  0  0  # atno 4300 bound_to 2456
    2.1086   -7.5203    5.5767 LP  0  0  0  0  0  0  0  0  0  0  0  0  # atno 4301 bound_to 2510
    2.8030   -8.3572    4.3585 LP  0  0  0  0  0  0  0  0  0  0  0  0  # atno 4302 bound_to 2510
   -3.2291  -17.0049   14.7772 LP  0  0  0  0  0  0  0  0  0  0  0  0  # atno 4306 bound_to 3712
   -3.4315  -16.9027   13.1600 LP  0  0  0  0  0  0  0  0  0  0  0  0  # atno 4307 bound_to 3712
    1.3902  -20.1012    9.1161 LP  0  0  0  0  0  0  0  0  0  0  0  0  # atno 4314 bound_to 3832
    2.6838  -19.9046    8.1391 LP  0  0  0  0  0  0  0  0  0  0  0  0  # atno 4315 bound_to 3832
   -4.5943  -23.2725   10.1815 LP  0  0  0  0  0  0  0  0  0  0  0  0  # atno 4318 bound_to 3762
   -5.4541  -22.0477   10.8351 LP  0  0  0  0  0  0  0  0  0  0  0  0  # atno 4319 bound_to 3762
   -3.7542   -4.8951    8.1417 LP  0  0  0  0  0  0  0  0  0  0  0  0  # atno 4320 bound_to 2467
   -4.5846   -5.4518    9.4329 LP  0  0  0  0  0  0  0  0  0  0  0  0  # atno 4321 bound_to 2467

> <Gold.Score>
     Score     S(PLP)   S(hbond)     S(cho)   S(metal)  DE(clash)   DE(tors)     intcor
     52.42     -48.53       1.62       0.00       0.00       0.66       0.89       1.46

> <Gold.PLP.Fitness>
52.4206

> <Gold.PLP.PLP>
-48.5313

> <Gold.PLP.part.hbond>
-2.0000

> <Gold.PLP.part.metal>
0.0000

> <Gold.PLP.part.buried>
-6.9749

> <Gold.PLP.part.nonpolar>
-40.6160

> <Gold.PLP.part.repulsive>
0.1284

> <Gold.PLP.ligand.clash>
0.6618

> <Gold.PLP.ligand.torsion>
0.8890

> <Gold.PLP.Chemscore.Hbond>
1.6240

> <Gold.PLP.Chemscore.CHOScore>
0.0000

> <Gold.PLP.Chemscore.Metal>
0.0000

> <Gold.Chemscore.Hbonds>
donor molecule, donor type, donor heavy atom, donor atom, acceptor molecule, acceptor atom, score
      P1  H  2305  2313       L1     9  1.00
      P1  H  3712  3721       L1    10  0.62

> <Gold.PLP.Chemscore.Internal.Correction>
1.4570

