#       Name:                EN300-61143_i001
#       Creating user name   aseyller
#       Creation time:       Sat Apr 22 07:36:21 2023


#       File generated by GOLD software.
#

@<TRIPOS>MOLECULE
EN300-61143_i001|amine_3|mol2|4017|dock15
    30    31     1
SMALL
USER_CHARGES


@<TRIPOS>ATOM
      1 C1          33.6003  36.0952  35.5521 C.3            1 <1>                0.0000
      2 C2          32.3998  35.2540  35.9905 C.3            1 <1>                0.0000
      3 O3          31.5355  36.0513  36.8424 O.3            1 <1>                0.0000
      4 C4          31.4719  35.7074  38.1383 C.2            1 <1>                0.0000
      5 O5          31.8842  34.6303  38.4985 O.2            1 <1>                0.0000
      6 C6          30.8862  36.6647  39.1440 C.3            1 <1>                0.0000
      7 N7          29.4605  36.8539  38.8653 N.pl3          1 <1>                0.0000
      8 C8          28.9470  37.3577  37.7017 C.2            1 <1>                0.0000
      9 C9          27.6071  37.3992  37.7728 C.2            1 <1>                0.0000
     10 C10         27.2310  36.8795  39.0899 C.ar           1 <1>                0.0000
     11 C11         26.0112  36.6772  39.7394 C.ar           1 <1>                0.0000
     12 C12         25.9977  36.1535  41.0184 C.ar           1 <1>                0.0000
     13 N13         24.7788  35.9483  41.6751 N.pl3          1 <1>                0.0000
     14 C14         27.1940  35.8287  41.6565 C.ar           1 <1>                0.0000
     15 C15         28.4011  36.0249  41.0244 C.ar           1 <1>                0.0000
     16 C16         28.4349  36.5453  39.7348 C.ar           1 <1>                0.0000
     17 H17         33.2505  36.9676  35.0000 H              1 <1>                0.0000
     18 H18         34.1565  36.4206  36.4312 H              1 <1>                0.0000
     19 H19         34.2492  35.4968  34.9126 H              1 <1>                0.0000
     20 H20         31.8437  34.9286  35.1113 H              1 <1>                0.0000
     21 H21         32.7497  34.3817  36.5425 H              1 <1>                0.0000
     22 H22         31.0093  36.2576  40.1477 H              1 <1>                0.0000
     23 H23         31.4003  37.6234  39.0753 H              1 <1>                0.0000
     24 H24         29.5328  37.6752  36.8519 H              1 <1>                0.0000
     25 H25         26.9338  37.7497  37.0045 H              1 <1>                0.0000
     26 H26         25.0843  36.9288  39.2455 H              1 <1>                0.0000
     27 H27         27.1735  35.4197  42.6558 H              1 <1>                0.0000
     28 H28         29.3218  35.7701  41.5281 H              1 <1>                0.0000
     29 H29         23.9456  36.1735  41.2326 H              1 <1>                0.0000
     30 H30         24.7674  35.5809  42.5727 H              1 <1>                0.0000
@<TRIPOS>BOND
    1    1    2 1     
    2    1   17 1     
    3    1   18 1     
    4    1   19 1     
    5    2    3 1     
    6    2   20 1     
    7    2   21 1     
    8    3    4 1     
    9    4    5 2     
   10    4    6 1     
   11    6    7 1     
   12    6   22 1     
   13    6   23 1     
   14    7    8 1     
   15    7   16 1     
   16    8    9 2     
   17    8   24 1     
   18    9   10 1     
   19    9   25 1     
   20   10   11 ar    
   21   10   16 ar    
   22   11   12 ar    
   23   11   26 1     
   24   12   13 1     
   25   12   14 ar    
   26   13   29 1     
   27   13   30 1     
   28   14   15 ar    
   29   14   27 1     
   30   15   16 ar    
   31   15   28 1     
@<TRIPOS>SUBSTRUCTURE
      1 ****           1
@<TRIPOS>SET
DONOR_HYDROGENS      STATIC     ATOMS    <user>   **** ""
2 29 30
ATOM$RED        STATIC     ATOMS    COLORGROUP SYSTEM
2 29 30
@<TRIPOS>COMMENT
> <Gold.Version>
2022.2.0

> <Gold.Id.Protein>
1qkm|1qkm_protein|mol2

> <Gold.Protein.RotatedTorsions>
[  496  491  490  487 ] final   57.04 input  -89.99 | X-H torsion

> <Gold.Protein.ActiveResidues>
 MET295  LEU298  THR299  LEU301  ALA302  GLU305  TRP335  MET336  LEU339  MET340 
 GLY342  LEU343  ARG346  PHE356  ILE373  ILE376  PHE377  LEU380  LYS471  GLY472 
 MET473  HIS475  LEU476  LEU477  ASN478  MET479  VAL484  VAL487 

> <Gold.Protein.RotatedAtoms>
   36.5273   33.3579   42.3205 H   0  0  0  0  0  0  0  0  0  0  0  0  # atno 496  bound_to 491 

> <Gold.Score>
     Score     S(PLP)   S(hbond)     S(cho)   S(metal)  DE(clash)   DE(tors)     intcor
     54.97     -50.84       1.76       0.00       0.00       0.00       0.58       0.00

> <Gold.PLP.Fitness>
54.9699

> <Gold.PLP.PLP>
-50.8438

> <Gold.PLP.part.hbond>
-2.0000

> <Gold.PLP.part.metal>
0.0000

> <Gold.PLP.part.buried>
-1.1576

> <Gold.PLP.part.nonpolar>
-49.2865

> <Gold.PLP.part.repulsive>
0.8351

> <Gold.PLP.ligand.clash>
0.0000

> <Gold.PLP.ligand.torsion>
0.5762

> <Gold.PLP.Chemscore.Hbond>
1.7593

> <Gold.PLP.Chemscore.CHOScore>
0.0000

> <Gold.PLP.Chemscore.Metal>
0.0000

> <Gold.Chemscore.Hbonds>
donor molecule, donor type, donor heavy atom, donor atom, acceptor molecule, acceptor atom, score
      L1  H    13    29       P1  1131  0.99
      L1  H    13    30       P1   582  0.77

> <Gold.PLP.Chemscore.Internal.Correction>
0.0007

