#       Name:                EN300-61143_i001
#       Creating user name   aseyller
#       Creation time:       Sat Apr 22 07:36:20 2023


#       File generated by GOLD software.
#

@<TRIPOS>MOLECULE
EN300-61143_i001|amine_3|mol2|4017|dock13
    30    31     1
SMALL
USER_CHARGES


@<TRIPOS>ATOM
      1 C1          32.8829  36.0167  37.8809 C.3            1 <1>                0.0000
      2 C2          32.4351  36.2293  36.4335 C.3            1 <1>                0.0000
      3 O3          31.0052  36.4795  36.4010 O.3            1 <1>                0.0000
      4 C4          30.6016  37.7390  36.6305 C.2            1 <1>                0.0000
      5 O5          31.3466  38.6629  36.4041 O.2            1 <1>                0.0000
      6 C6          29.2193  38.0006  37.1706 C.3            1 <1>                0.0000
      7 N7          29.0296  37.2474  38.4128 N.pl3          1 <1>                0.0000
      8 C8          30.0221  36.6077  39.1036 C.2            1 <1>                0.0000
      9 C9          29.5116  36.0152  40.1947 C.2            1 <1>                0.0000
     10 C10         28.0742  36.2983  40.2039 C.ar           1 <1>                0.0000
     11 C11         27.0260  35.9620  41.0635 C.ar           1 <1>                0.0000
     12 C12         25.7455  36.3994  40.7819 C.ar           1 <1>                0.0000
     13 N13         24.6904  36.0659  41.6390 N.pl3          1 <1>                0.0000
     14 C14         25.5013  37.1718  39.6472 C.ar           1 <1>                0.0000
     15 C15         26.5280  37.5080  38.7940 C.ar           1 <1>                0.0000
     16 C16         27.8246  37.0822  39.0636 C.ar           1 <1>                0.0000
     17 H17         32.6567  36.9083  38.4659 H              1 <1>                0.0000
     18 H18         32.3548  35.1617  38.3029 H              1 <1>                0.0000
     19 H19         33.9563  35.8289  37.9053 H              1 <1>                0.0000
     20 H20         32.9633  37.0844  36.0116 H              1 <1>                0.0000
     21 H21         32.6614  35.3378  35.8486 H              1 <1>                0.0000
     22 H22         29.1028  39.0659  37.3703 H              1 <1>                0.0000
     23 H23         28.4769  37.6851  36.4374 H              1 <1>                0.0000
     24 H24         31.0622  36.5828  38.8140 H              1 <1>                0.0000
     25 H25         30.0573  35.4386  40.9270 H              1 <1>                0.0000
     26 H26         27.2148  35.3636  41.9425 H              1 <1>                0.0000
     27 H27         24.4975  37.5093  39.4355 H              1 <1>                0.0000
     28 H28         26.3275  38.1065  37.9178 H              1 <1>                0.0000
     29 H29         24.8586  35.5288  42.4289 H              1 <1>                0.0000
     30 H30         23.7911  36.3720  41.4429 H              1 <1>                0.0000
@<TRIPOS>BOND
    1    1    2 1     
    2    1   17 1     
    3    1   18 1     
    4    1   19 1     
    5    2    3 1     
    6    2   20 1     
    7    2   21 1     
    8    3    4 1     
    9    4    5 2     
   10    4    6 1     
   11    6    7 1     
   12    6   22 1     
   13    6   23 1     
   14    7    8 1     
   15    7   16 1     
   16    8    9 2     
   17    8   24 1     
   18    9   10 1     
   19    9   25 1     
   20   10   11 ar    
   21   10   16 ar    
   22   11   12 ar    
   23   11   26 1     
   24   12   13 1     
   25   12   14 ar    
   26   13   29 1     
   27   13   30 1     
   28   14   15 ar    
   29   14   27 1     
   30   15   16 ar    
   31   15   28 1     
@<TRIPOS>SUBSTRUCTURE
      1 ****           1
@<TRIPOS>SET
DONOR_HYDROGENS      STATIC     ATOMS    <user>   **** ""
2 29 30
ATOM$RED        STATIC     ATOMS    COLORGROUP SYSTEM
2 29 30
@<TRIPOS>COMMENT
> <Gold.Version>
2022.2.0

> <Gold.Id.Protein>
1qkm|1qkm_protein|mol2

> <Gold.Protein.RotatedTorsions>
[  496  491  490  487 ] final  135.63 input  -89.99 | X-H torsion

> <Gold.Protein.ActiveResidues>
 MET295  LEU298  THR299  LEU301  ALA302  GLU305  TRP335  MET336  LEU339  MET340 
 GLY342  LEU343  ARG346  PHE356  ILE373  ILE376  PHE377  LEU380  LYS471  GLY472 
 MET473  HIS475  LEU476  LEU477  ASN478  MET479  VAL484  VAL487 

> <Gold.Protein.RotatedAtoms>
   37.1890   32.9985   41.3930 H   0  0  0  0  0  0  0  0  0  0  0  0  # atno 496  bound_to 491 

> <Gold.Score>
     Score     S(PLP)   S(hbond)     S(cho)   S(metal)  DE(clash)   DE(tors)     intcor
     55.76     -52.67       1.43       0.00       0.00       0.00       0.61       0.00

> <Gold.PLP.Fitness>
55.7567

> <Gold.PLP.PLP>
-52.6732

> <Gold.PLP.part.hbond>
-2.0000

> <Gold.PLP.part.metal>
0.0000

> <Gold.PLP.part.buried>
-1.9827

> <Gold.PLP.part.nonpolar>
-50.1793

> <Gold.PLP.part.repulsive>
1.3493

> <Gold.PLP.ligand.clash>
0.0000

> <Gold.PLP.ligand.torsion>
0.6107

> <Gold.PLP.Chemscore.Hbond>
1.4338

> <Gold.PLP.Chemscore.CHOScore>
0.0000

> <Gold.PLP.Chemscore.Metal>
0.0000

> <Gold.Chemscore.Hbonds>
donor molecule, donor type, donor heavy atom, donor atom, acceptor molecule, acceptor atom, score
      L1  H    13    29       P1   582  0.99
      L1  H    13    30       P1  1131  0.44

> <Gold.PLP.Chemscore.Internal.Correction>
0.0036

