#       Name:                EN300-61143_i001
#       Creating user name   aseyller
#       Creation time:       Sat Apr 22 07:36:20 2023


#       File generated by GOLD software.
#

@<TRIPOS>MOLECULE
EN300-61143_i001|amine_3|mol2|4017|dock14
    30    31     1
SMALL
USER_CHARGES


@<TRIPOS>ATOM
      1 C1          32.9799  36.8561  34.8984 C.3            1 <1>                0.0000
      2 C2          33.8776  36.1511  35.9172 C.3            1 <1>                0.0000
      3 O3          33.2944  36.2715  37.2414 O.3            1 <1>                0.0000
      4 C4          32.1144  35.6648  37.4450 C.2            1 <1>                0.0000
      5 O5          31.6020  35.0264  36.5563 O.2            1 <1>                0.0000
      6 C6          31.4287  35.7800  38.7820 C.3            1 <1>                0.0000
      7 N7          30.0883  36.3414  38.5966 N.pl3          1 <1>                0.0000
      8 C8          29.6874  37.0789  37.5165 C.2            1 <1>                0.0000
      9 C9          28.4021  37.4390  37.6596 C.2            1 <1>                0.0000
     10 C10         27.9415  36.8870  38.9362 C.ar           1 <1>                0.0000
     11 C11         26.7264  36.9199  39.6239 C.ar           1 <1>                0.0000
     12 C12         26.6150  36.2796  40.8437 C.ar           1 <1>                0.0000
     13 N13         25.4002  36.3086  41.5382 N.pl3          1 <1>                0.0000
     14 C14         27.7085  35.6045  41.3844 C.ar           1 <1>                0.0000
     15 C15         28.9103  35.5670  40.7141 C.ar           1 <1>                0.0000
     16 C16         29.0403  36.2004  39.4824 C.ar           1 <1>                0.0000
     17 H17         31.9923  36.3947  34.9038 H              1 <1>                0.0000
     18 H18         32.8899  37.9101  35.1613 H              1 <1>                0.0000
     19 H19         33.4177  36.7657  33.9043 H              1 <1>                0.0000
     20 H20         33.9676  35.0971  35.6542 H              1 <1>                0.0000
     21 H21         34.8652  36.6125  35.9118 H              1 <1>                0.0000
     22 H22         31.3493  34.7921  39.2359 H              1 <1>                0.0000
     23 H23         32.0095  36.4333  39.4331 H              1 <1>                0.0000
     24 H24         30.3124  37.3340  36.6735 H              1 <1>                0.0000
     25 H25         27.8181  38.0250  36.9654 H              1 <1>                0.0000
     26 H26         25.8791  37.4428  39.2054 H              1 <1>                0.0000
     27 H27         27.6119  35.1068  42.3380 H              1 <1>                0.0000
     28 H28         29.7510  35.0415  41.1424 H              1 <1>                0.0000
     29 H29         24.6384  36.7776  41.1634 H              1 <1>                0.0000
     30 H30         25.3202  35.8598  42.3944 H              1 <1>                0.0000
@<TRIPOS>BOND
    1    1    2 1     
    2    1   17 1     
    3    1   18 1     
    4    1   19 1     
    5    2    3 1     
    6    2   20 1     
    7    2   21 1     
    8    3    4 1     
    9    4    5 2     
   10    4    6 1     
   11    6    7 1     
   12    6   22 1     
   13    6   23 1     
   14    7    8 1     
   15    7   16 1     
   16    8    9 2     
   17    8   24 1     
   18    9   10 1     
   19    9   25 1     
   20   10   11 ar    
   21   10   16 ar    
   22   11   12 ar    
   23   11   26 1     
   24   12   13 1     
   25   12   14 ar    
   26   13   29 1     
   27   13   30 1     
   28   14   15 ar    
   29   14   27 1     
   30   15   16 ar    
   31   15   28 1     
@<TRIPOS>SUBSTRUCTURE
      1 ****           1
@<TRIPOS>SET
DONOR_HYDROGENS      STATIC     ATOMS    <user>   **** ""
2 29 30
ATOM$RED        STATIC     ATOMS    COLORGROUP SYSTEM
2 29 30
@<TRIPOS>COMMENT
> <Gold.Version>
2022.2.0

> <Gold.Id.Protein>
1qkm|1qkm_protein|mol2

> <Gold.Protein.RotatedTorsions>
[  496  491  490  487 ] final  160.39 input  -89.99 | X-H torsion

> <Gold.Protein.ActiveResidues>
 MET295  LEU298  THR299  LEU301  ALA302  GLU305  TRP335  MET336  LEU339  MET340 
 GLY342  LEU343  ARG346  PHE356  ILE373  ILE376  PHE377  LEU380  LYS471  GLY472 
 MET473  HIS475  LEU476  LEU477  ASN478  MET479  VAL484  VAL487 

> <Gold.Protein.RotatedAtoms>
   37.2977   33.2097   41.0656 H   0  0  0  0  0  0  0  0  0  0  0  0  # atno 496  bound_to 491 

> <Gold.Score>
     Score     S(PLP)   S(hbond)     S(cho)   S(metal)  DE(clash)   DE(tors)     intcor
     52.42     -50.09       0.99       0.00       0.00       0.00       0.33       0.00

> <Gold.PLP.Fitness>
52.4164

> <Gold.PLP.PLP>
-50.0948

> <Gold.PLP.part.hbond>
-1.0000

> <Gold.PLP.part.metal>
0.0000

> <Gold.PLP.part.buried>
-0.6810

> <Gold.PLP.part.nonpolar>
-48.7976

> <Gold.PLP.part.repulsive>
0.1297

> <Gold.PLP.ligand.clash>
0.0000

> <Gold.PLP.ligand.torsion>
0.3265

> <Gold.PLP.Chemscore.Hbond>
0.9913

> <Gold.PLP.Chemscore.CHOScore>
0.0000

> <Gold.PLP.Chemscore.Metal>
0.0000

> <Gold.Chemscore.Hbonds>
donor molecule, donor type, donor heavy atom, donor atom, acceptor molecule, acceptor atom, score
      L1  H    13    30       P1   582  0.99

> <Gold.PLP.Chemscore.Internal.Correction>
0.0007

