#       Name:                EN300-61143_i001
#       Creating user name   aseyller
#       Creation time:       Sat Apr 22 07:36:23 2023


#       File generated by GOLD software.
#

@<TRIPOS>MOLECULE
EN300-61143_i001|amine_3|mol2|4017|dock18
    30    31     1
SMALL
USER_CHARGES


@<TRIPOS>ATOM
      1 C1          33.4780  36.6853  34.8260 C.3            1 <1>                0.0000
      2 C2          32.8574  38.0775  34.9584 C.3            1 <1>                0.0000
      3 O3          32.3199  38.2425  36.2971 O.3            1 <1>                0.0000
      4 C4          31.2583  37.4892  36.6247 C.2            1 <1>                0.0000
      5 O5          30.6535  36.8918  35.7661 O.2            1 <1>                0.0000
      6 C6          30.8207  37.3887  38.0632 C.3            1 <1>                0.0000
      7 N7          29.3639  37.5215  38.1409 N.pl3          1 <1>                0.0000
      8 C8          28.5853  38.1839  37.2319 C.2            1 <1>                0.0000
      9 C9          27.2955  38.1163  37.5984 C.2            1 <1>                0.0000
     10 C10         27.2434  37.3477  38.8446 C.ar           1 <1>                0.0000
     11 C11         26.2091  36.9478  39.6936 C.ar           1 <1>                0.0000
     12 C12         26.5014  36.2079  40.8238 C.ar           1 <1>                0.0000
     13 N13         25.4697  35.8038  41.6790 N.pl3          1 <1>                0.0000
     14 C14         27.8204  35.8623  41.1147 C.ar           1 <1>                0.0000
     15 C15         28.8465  36.2524  40.2841 C.ar           1 <1>                0.0000
     16 C16         28.5717  36.9924  39.1387 C.ar           1 <1>                0.0000
     17 H17         34.2800  36.5742  35.5558 H              1 <1>                0.0000
     18 H18         32.7147  35.9285  35.0070 H              1 <1>                0.0000
     19 H19         33.8815  36.5614  33.8211 H              1 <1>                0.0000
     20 H20         33.6208  38.8343  34.7775 H              1 <1>                0.0000
     21 H21         32.0554  38.1887  34.2286 H              1 <1>                0.0000
     22 H22         31.1194  36.4212  38.4671 H              1 <1>                0.0000
     23 H23         31.2896  38.1845  38.6421 H              1 <1>                0.0000
     24 H24         28.9535  38.6869  36.3500 H              1 <1>                0.0000
     25 H25         26.4555  38.5473  37.0741 H              1 <1>                0.0000
     26 H26         25.1872  37.2153  39.4686 H              1 <1>                0.0000
     27 H27         28.0392  35.2837  42.0000 H              1 <1>                0.0000
     28 H28         29.8646  35.9795  40.5191 H              1 <1>                0.0000
     29 H29         24.5515  36.0432  41.4780 H              1 <1>                0.0000
     30 H30         25.6730  35.2845  42.4726 H              1 <1>                0.0000
@<TRIPOS>BOND
    1    1    2 1     
    2    1   17 1     
    3    1   18 1     
    4    1   19 1     
    5    2    3 1     
    6    2   20 1     
    7    2   21 1     
    8    3    4 1     
    9    4    5 2     
   10    4    6 1     
   11    6    7 1     
   12    6   22 1     
   13    6   23 1     
   14    7    8 1     
   15    7   16 1     
   16    8    9 2     
   17    8   24 1     
   18    9   10 1     
   19    9   25 1     
   20   10   11 ar    
   21   10   16 ar    
   22   11   12 ar    
   23   11   26 1     
   24   12   13 1     
   25   12   14 ar    
   26   13   29 1     
   27   13   30 1     
   28   14   15 ar    
   29   14   27 1     
   30   15   16 ar    
   31   15   28 1     
@<TRIPOS>SUBSTRUCTURE
      1 ****           1
@<TRIPOS>SET
DONOR_HYDROGENS      STATIC     ATOMS    <user>   **** ""
2 29 30
ATOM$RED        STATIC     ATOMS    COLORGROUP SYSTEM
2 29 30
@<TRIPOS>COMMENT
> <Gold.Version>
2022.2.0

> <Gold.Id.Protein>
1qkm|1qkm_protein|mol2

> <Gold.Protein.RotatedTorsions>
[  496  491  490  487 ] final  111.41 input  -89.99 | X-H torsion

> <Gold.Protein.ActiveResidues>
 MET295  LEU298  THR299  LEU301  ALA302  GLU305  TRP335  MET336  LEU339  MET340 
 GLY342  LEU343  ARG346  PHE356  ILE373  ILE376  PHE377  LEU380  LYS471  GLY472 
 MET473  HIS475  LEU476  LEU477  ASN478  MET479  VAL484  VAL487 

> <Gold.Protein.RotatedAtoms>
   37.0113   32.9410   41.7417 H   0  0  0  0  0  0  0  0  0  0  0  0  # atno 496  bound_to 491 

> <Gold.Score>
     Score     S(PLP)   S(hbond)     S(cho)   S(metal)  DE(clash)   DE(tors)     intcor
     55.47     -53.90       1.00       0.00       0.00       0.00       0.71       0.00

> <Gold.PLP.Fitness>
55.4722

> <Gold.PLP.PLP>
-53.8981

> <Gold.PLP.part.hbond>
-0.9315

> <Gold.PLP.part.metal>
0.0000

> <Gold.PLP.part.buried>
-4.2907

> <Gold.PLP.part.nonpolar>
-49.2152

> <Gold.PLP.part.repulsive>
0.1315

> <Gold.PLP.ligand.clash>
0.0000

> <Gold.PLP.ligand.torsion>
0.7133

> <Gold.PLP.Chemscore.Hbond>
1.0000

> <Gold.PLP.Chemscore.CHOScore>
0.0000

> <Gold.PLP.Chemscore.Metal>
0.0000

> <Gold.Chemscore.Hbonds>
donor molecule, donor type, donor heavy atom, donor atom, acceptor molecule, acceptor atom, score
      L1  H    13    30       P1   582  1.00

> <Gold.PLP.Chemscore.Internal.Correction>
0.0007

