#       Name:                EN300-61143_i001
#       Creating user name   aseyller
#       Creation time:       Sat Apr 22 07:36:15 2023


#       File generated by GOLD software.
#

@<TRIPOS>MOLECULE
EN300-61143_i001|amine_3|mol2|4017|dock4
    30    31     1
SMALL
USER_CHARGES


@<TRIPOS>ATOM
      1 C1          32.3931  37.9390  33.9949 C.3            1 <1>                0.0000
      2 C2          32.7670  38.3157  35.4299 C.3            1 <1>                0.0000
      3 O3          31.5585  38.5609  36.1965 O.3            1 <1>                0.0000
      4 C4          30.7463  37.5128  36.4055 C.2            1 <1>                0.0000
      5 O5          31.1416  36.3907  36.1947 O.2            1 <1>                0.0000
      6 C6          29.3414  37.7357  36.9030 C.3            1 <1>                0.0000
      7 N7          29.1643  37.0540  38.1875 N.pl3          1 <1>                0.0000
      8 C8          30.1612  36.4419  38.8967 C.2            1 <1>                0.0000
      9 C9          29.6625  35.9159  40.0267 C.2            1 <1>                0.0000
     10 C10         28.2285  36.2155  40.0431 C.ar           1 <1>                0.0000
     11 C11         27.1911  35.9389  40.9363 C.ar           1 <1>                0.0000
     12 C12         25.9108  36.3747  40.6514 C.ar           1 <1>                0.0000
     13 N13         24.8665  36.1009  41.5422 N.pl3          1 <1>                0.0000
     14 C14         25.6561  37.0865  39.4800 C.ar           1 <1>                0.0000
     15 C15         26.6721  37.3636  38.5934 C.ar           1 <1>                0.0000
     16 C16         27.9685  36.9385  38.8655 C.ar           1 <1>                0.0000
     17 H17         31.7795  37.0380  34.0040 H              1 <1>                0.0000
     18 H18         31.8330  38.7554  33.5390 H              1 <1>                0.0000
     19 H19         33.3003  37.7549  33.4194 H              1 <1>                0.0000
     20 H20         33.3271  37.4992  35.8857 H              1 <1>                0.0000
     21 H21         33.3806  39.2166  35.4208 H              1 <1>                0.0000
     22 H22         29.1666  38.8040  37.0314 H              1 <1>                0.0000
     23 H23         28.6317  37.3359  36.1786 H              1 <1>                0.0000
     24 H24         31.1960  36.3892  38.5924 H              1 <1>                0.0000
     25 H25         30.2140  35.3742  40.7809 H              1 <1>                0.0000
     26 H26         27.3880  35.3874  41.8438 H              1 <1>                0.0000
     27 H27         24.6526  37.4234  39.2660 H              1 <1>                0.0000
     28 H28         26.4636  37.9155  37.6888 H              1 <1>                0.0000
     29 H29         25.0419  35.6060  42.3577 H              1 <1>                0.0000
     30 H30         23.9674  36.4060  41.3439 H              1 <1>                0.0000
@<TRIPOS>BOND
    1    1    2 1     
    2    1   17 1     
    3    1   18 1     
    4    1   19 1     
    5    2    3 1     
    6    2   20 1     
    7    2   21 1     
    8    3    4 1     
    9    4    5 2     
   10    4    6 1     
   11    6    7 1     
   12    6   22 1     
   13    6   23 1     
   14    7    8 1     
   15    7   16 1     
   16    8    9 2     
   17    8   24 1     
   18    9   10 1     
   19    9   25 1     
   20   10   11 ar    
   21   10   16 ar    
   22   11   12 ar    
   23   11   26 1     
   24   12   13 1     
   25   12   14 ar    
   26   13   29 1     
   27   13   30 1     
   28   14   15 ar    
   29   14   27 1     
   30   15   16 ar    
   31   15   28 1     
@<TRIPOS>SUBSTRUCTURE
      1 ****           1
@<TRIPOS>SET
DONOR_HYDROGENS      STATIC     ATOMS    <user>   **** ""
2 29 30
ATOM$RED        STATIC     ATOMS    COLORGROUP SYSTEM
2 29 30
@<TRIPOS>COMMENT
> <Gold.Version>
2022.2.0

> <Gold.Id.Protein>
1qkm|1qkm_protein|mol2

> <Gold.Protein.RotatedTorsions>
[  496  491  490  487 ] final   33.48 input  -89.99 | X-H torsion

> <Gold.Protein.ActiveResidues>
 MET295  LEU298  THR299  LEU301  ALA302  GLU305  TRP335  MET336  LEU339  MET340 
 GLY342  LEU343  ARG346  PHE356  ILE373  ILE376  PHE377  LEU380  LYS471  GLY472 
 MET473  HIS475  LEU476  LEU477  ASN478  MET479  VAL484  VAL487 

> <Gold.Protein.RotatedAtoms>
   36.3649   33.7012   42.3831 H   0  0  0  0  0  0  0  0  0  0  0  0  # atno 496  bound_to 491 

> <Gold.Score>
     Score     S(PLP)   S(hbond)     S(cho)   S(metal)  DE(clash)   DE(tors)     intcor
     56.88     -53.06       1.42       0.00       0.00       0.00       0.23       0.02

> <Gold.PLP.Fitness>
56.8821

> <Gold.PLP.PLP>
-53.0613

> <Gold.PLP.part.hbond>
-2.0000

> <Gold.PLP.part.metal>
0.0000

> <Gold.PLP.part.buried>
-3.2254

> <Gold.PLP.part.nonpolar>
-49.8027

> <Gold.PLP.part.repulsive>
0.5720

> <Gold.PLP.ligand.clash>
0.0000

> <Gold.PLP.ligand.torsion>
0.2257

> <Gold.PLP.Chemscore.Hbond>
1.4157

> <Gold.PLP.Chemscore.CHOScore>
0.0000

> <Gold.PLP.Chemscore.Metal>
0.0000

> <Gold.Chemscore.Hbonds>
donor molecule, donor type, donor heavy atom, donor atom, acceptor molecule, acceptor atom, score
      L1  H    13    29       P1   582  1.00
      L1  H    13    30       P1  1131  0.42

> <Gold.PLP.Chemscore.Internal.Correction>
0.0249

