#       Name:                EN300-61143_i001
#       Creating user name   aseyller
#       Creation time:       Sat Apr 22 07:36:15 2023


#       File generated by GOLD software.
#

@<TRIPOS>MOLECULE
EN300-61143_i001|amine_3|mol2|4017|dock3
    30    31     1
SMALL
USER_CHARGES


@<TRIPOS>ATOM
      1 C1          32.8102  36.9425  35.1974 C.3            1 <1>                0.0000
      2 C2          31.8996  37.8636  34.3830 C.3            1 <1>                0.0000
      3 O3          30.5454  37.7869  34.9011 O.3            1 <1>                0.0000
      4 C4          30.3213  38.3372  36.1047 C.2            1 <1>                0.0000
      5 O5          31.2377  38.8153  36.7305 O.2            1 <1>                0.0000
      6 C6          28.9268  38.3588  36.6756 C.3            1 <1>                0.0000
      7 N7          28.9002  37.5995  37.9282 N.pl3          1 <1>                0.0000
      8 C8          29.9935  37.0437  38.5340 C.2            1 <1>                0.0000
      9 C9          29.6230  36.4186  39.6628 C.2            1 <1>                0.0000
     10 C10         28.1734  36.5876  39.7909 C.ar           1 <1>                0.0000
     11 C11         27.2293  36.1743  40.7335 C.ar           1 <1>                0.0000
     12 C12         25.8995  36.5079  40.5591 C.ar           1 <1>                0.0000
     13 N13         24.9481  36.0969  41.4998 N.pl3          1 <1>                0.0000
     14 C14         25.5025  37.2528  39.4494 C.ar           1 <1>                0.0000
     15 C15         26.4257  37.6642  38.5148 C.ar           1 <1>                0.0000
     16 C16         27.7696  37.3434  38.6760 C.ar           1 <1>                0.0000
     17 H17         32.8025  37.2548  36.2418 H              1 <1>                0.0000
     18 H18         32.4500  35.9164  35.1224 H              1 <1>                0.0000
     19 H19         33.8268  37.0001  34.8086 H              1 <1>                0.0000
     20 H20         32.2599  38.8896  34.4581 H              1 <1>                0.0000
     21 H21         31.9074  37.5513  33.3387 H              1 <1>                0.0000
     22 H22         28.6293  39.3894  36.8690 H              1 <1>                0.0000
     23 H23         28.2355  37.9086  35.9630 H              1 <1>                0.0000
     24 H24         31.0049  37.0993  38.1595 H              1 <1>                0.0000
     25 H25         30.2709  35.8906  40.3468 H              1 <1>                0.0000
     26 H26         27.5365  35.5973  41.5932 H              1 <1>                0.0000
     27 H27         24.4611  37.5090  39.3216 H              1 <1>                0.0000
     28 H28         26.1071  38.2405  37.6588 H              1 <1>                0.0000
     29 H29         25.2226  35.5789  42.2726 H              1 <1>                0.0000
     30 H30         24.0144  36.3302  41.3791 H              1 <1>                0.0000
@<TRIPOS>BOND
    1    1    2 1     
    2    1   17 1     
    3    1   18 1     
    4    1   19 1     
    5    2    3 1     
    6    2   20 1     
    7    2   21 1     
    8    3    4 1     
    9    4    5 2     
   10    4    6 1     
   11    6    7 1     
   12    6   22 1     
   13    6   23 1     
   14    7    8 1     
   15    7   16 1     
   16    8    9 2     
   17    8   24 1     
   18    9   10 1     
   19    9   25 1     
   20   10   11 ar    
   21   10   16 ar    
   22   11   12 ar    
   23   11   26 1     
   24   12   13 1     
   25   12   14 ar    
   26   13   29 1     
   27   13   30 1     
   28   14   15 ar    
   29   14   27 1     
   30   15   16 ar    
   31   15   28 1     
@<TRIPOS>SUBSTRUCTURE
      1 ****           1
@<TRIPOS>SET
DONOR_HYDROGENS      STATIC     ATOMS    <user>   **** ""
2 29 30
ATOM$RED        STATIC     ATOMS    COLORGROUP SYSTEM
2 29 30
@<TRIPOS>COMMENT
> <Gold.Version>
2022.2.0

> <Gold.Id.Protein>
1qkm|1qkm_protein|mol2

> <Gold.Protein.RotatedTorsions>
[  496  491  490  487 ] final -101.49 input  -89.99 | X-H torsion

> <Gold.Protein.ActiveResidues>
 MET295  LEU298  THR299  LEU301  ALA302  GLU305  TRP335  MET336  LEU339  MET340 
 GLY342  LEU343  ARG346  PHE356  ILE373  ILE376  PHE377  LEU380  LYS471  GLY472 
 MET473  HIS475  LEU476  LEU477  ASN478  MET479  VAL484  VAL487 

> <Gold.Protein.RotatedAtoms>
   36.8633   34.5621   40.9524 H   0  0  0  0  0  0  0  0  0  0  0  0  # atno 496  bound_to 491 

> <Gold.Score>
     Score     S(PLP)   S(hbond)     S(cho)   S(metal)  DE(clash)   DE(tors)     intcor
     59.45     -55.46       1.36       0.00       0.00       0.00       0.06       0.02

> <Gold.PLP.Fitness>
59.4514

> <Gold.PLP.PLP>
-55.4619

> <Gold.PLP.part.hbond>
-2.0000

> <Gold.PLP.part.metal>
0.0000

> <Gold.PLP.part.buried>
-3.5733

> <Gold.PLP.part.nonpolar>
-49.8209

> <Gold.PLP.part.repulsive>
0.2097

> <Gold.PLP.ligand.clash>
0.0000

> <Gold.PLP.ligand.torsion>
0.0583

> <Gold.PLP.Chemscore.Hbond>
1.3604

> <Gold.PLP.Chemscore.CHOScore>
0.0000

> <Gold.PLP.Chemscore.Metal>
0.0000

> <Gold.Chemscore.Hbonds>
donor molecule, donor type, donor heavy atom, donor atom, acceptor molecule, acceptor atom, score
      L1  H    13    29       P1   582  1.00
      L1  H    13    30       P1  1131  0.36

> <Gold.PLP.Chemscore.Internal.Correction>
0.0249

