#       Name:                EN300-61143_i001
#       Creating user name   aseyller
#       Creation time:       Sat Apr 22 07:36:16 2023


#       File generated by GOLD software.
#

@<TRIPOS>MOLECULE
EN300-61143_i001|amine_3|mol2|4017|dock5
    30    31     1
SMALL
USER_CHARGES


@<TRIPOS>ATOM
      1 C1          33.3426  36.7690  35.1202 C.3            1 <1>                0.0000
      2 C2          32.3530  35.6768  35.5308 C.3            1 <1>                0.0000
      3 O3          31.9091  35.9132  36.8930 O.3            1 <1>                0.0000
      4 C4          31.2076  37.0350  37.1193 C.2            1 <1>                0.0000
      5 O5          31.0371  37.8313  36.2267 O.2            1 <1>                0.0000
      6 C6          30.6328  37.3013  38.4866 C.3            1 <1>                0.0000
      7 N7          29.1798  37.4575  38.3836 N.pl3          1 <1>                0.0000
      8 C8          28.5271  38.0812  37.3558 C.2            1 <1>                0.0000
      9 C9          27.2020  38.0502  37.5693 C.2            1 <1>                0.0000
     10 C10         26.9880  37.3493  38.8379 C.ar           1 <1>                0.0000
     11 C11         25.8531  37.0086  39.5770 C.ar           1 <1>                0.0000
     12 C12         25.9954  36.3257  40.7702 C.ar           1 <1>                0.0000
     13 N13         24.8622  35.9812  41.5160 N.pl3          1 <1>                0.0000
     14 C14         27.2638  35.9785  41.2332 C.ar           1 <1>                0.0000
     15 C15         28.3883  36.3104  40.5117 C.ar           1 <1>                0.0000
     16 C16         28.2651  36.9924  39.3056 C.ar           1 <1>                0.0000
     17 H17         32.8550  37.7421  35.1797 H              1 <1>                0.0000
     18 H18         34.2019  36.7515  35.7906 H              1 <1>                0.0000
     19 H19         33.6758  36.5917  34.0976 H              1 <1>                0.0000
     20 H20         31.4937  35.6944  34.8604 H              1 <1>                0.0000
     21 H21         32.8405  34.7038  35.4712 H              1 <1>                0.0000
     22 H22         30.8624  36.4647  39.1466 H              1 <1>                0.0000
     23 H23         31.0685  38.2144  38.8924 H              1 <1>                0.0000
     24 H24         29.0066  38.5319  36.4996 H              1 <1>                0.0000
     25 H25         26.4383  38.4641  36.9275 H              1 <1>                0.0000
     26 H26         24.8703  37.2775  39.2188 H              1 <1>                0.0000
     27 H27         27.3651  35.4446  42.1665 H              1 <1>                0.0000
     28 H28         29.3660  36.0368  40.8799 H              1 <1>                0.0000
     29 H29         23.9790  36.2218  41.1953 H              1 <1>                0.0000
     30 H30         24.9602  35.5019  42.3536 H              1 <1>                0.0000
@<TRIPOS>BOND
    1    1    2 1     
    2    1   17 1     
    3    1   18 1     
    4    1   19 1     
    5    2    3 1     
    6    2   20 1     
    7    2   21 1     
    8    3    4 1     
    9    4    5 2     
   10    4    6 1     
   11    6    7 1     
   12    6   22 1     
   13    6   23 1     
   14    7    8 1     
   15    7   16 1     
   16    8    9 2     
   17    8   24 1     
   18    9   10 1     
   19    9   25 1     
   20   10   11 ar    
   21   10   16 ar    
   22   11   12 ar    
   23   11   26 1     
   24   12   13 1     
   25   12   14 ar    
   26   13   29 1     
   27   13   30 1     
   28   14   15 ar    
   29   14   27 1     
   30   15   16 ar    
   31   15   28 1     
@<TRIPOS>SUBSTRUCTURE
      1 ****           1
@<TRIPOS>SET
DONOR_HYDROGENS      STATIC     ATOMS    <user>   **** ""
2 29 30
ATOM$RED        STATIC     ATOMS    COLORGROUP SYSTEM
2 29 30
@<TRIPOS>COMMENT
> <Gold.Version>
2022.2.0

> <Gold.Id.Protein>
1qkm|1qkm_protein|mol2

> <Gold.Protein.RotatedTorsions>
[  496  491  490  487 ] final   44.76 input  -89.99 | X-H torsion

> <Gold.Protein.ActiveResidues>
 MET295  LEU298  THR299  LEU301  ALA302  GLU305  TRP335  MET336  LEU339  MET340 
 GLY342  LEU343  ARG346  PHE356  ILE373  ILE376  PHE377  LEU380  LYS471  GLY472 
 MET473  HIS475  LEU476  LEU477  ASN478  MET479  VAL484  VAL487 

> <Gold.Protein.RotatedAtoms>
   36.4353   33.5303   42.3703 H   0  0  0  0  0  0  0  0  0  0  0  0  # atno 496  bound_to 491 

> <Gold.Score>
     Score     S(PLP)   S(hbond)     S(cho)   S(metal)  DE(clash)   DE(tors)     intcor
     59.43     -54.37       1.90       0.00       0.00       0.00       0.34       0.02

> <Gold.PLP.Fitness>
59.4251

> <Gold.PLP.PLP>
-54.3683

> <Gold.PLP.part.hbond>
-2.0000

> <Gold.PLP.part.metal>
0.0000

> <Gold.PLP.part.buried>
-3.8435

> <Gold.PLP.part.nonpolar>
-48.7181

> <Gold.PLP.part.repulsive>
0.1712

> <Gold.PLP.ligand.clash>
0.0000

> <Gold.PLP.ligand.torsion>
0.3412

> <Gold.PLP.Chemscore.Hbond>
1.9048

> <Gold.PLP.Chemscore.CHOScore>
0.0000

> <Gold.PLP.Chemscore.Metal>
0.0000

> <Gold.Chemscore.Hbonds>
donor molecule, donor type, donor heavy atom, donor atom, acceptor molecule, acceptor atom, score
      L1  H    13    29       P1  1131  0.90
      L1  H    13    30       P1   582  1.00

> <Gold.PLP.Chemscore.Internal.Correction>
0.0249

