#       Name:                EN300-61143_i001
#       Creating user name   aseyller
#       Creation time:       Sat Apr 22 07:36:14 2023


#       File generated by GOLD software.
#

@<TRIPOS>MOLECULE
EN300-61143_i001|amine_3|mol2|4017|dock2
    30    31     1
SMALL
USER_CHARGES


@<TRIPOS>ATOM
      1 C1          32.3357  38.0237  34.2286 C.3            1 <1>                0.0000
      2 C2          32.3161  36.8814  35.2462 C.3            1 <1>                0.0000
      3 O3          31.5817  37.2981  36.4274 O.3            1 <1>                0.0000
      4 C4          31.5387  36.4347  37.4543 C.2            1 <1>                0.0000
      5 O5          32.0074  35.3276  37.3329 O.2            1 <1>                0.0000
      6 C6          30.9059  36.8460  38.7586 C.3            1 <1>                0.0000
      7 N7          29.4702  37.0590  38.5592 N.pl3          1 <1>                0.0000
      8 C8          28.9083  37.6495  37.4606 C.2            1 <1>                0.0000
      9 C9          27.5731  37.6888  37.5947 C.2            1 <1>                0.0000
     10 C10         27.2532  37.0730  38.8850 C.ar           1 <1>                0.0000
     11 C11         26.0624  36.8257  39.5717 C.ar           1 <1>                0.0000
     12 C12         26.1030  36.2079  40.8074 C.ar           1 <1>                0.0000
     13 N13         24.9135  35.9571  41.5011 N.pl3          1 <1>                0.0000
     14 C14         27.3247  35.8334  41.3651 C.ar           1 <1>                0.0000
     15 C15         28.5035  36.0734  40.6958 C.ar           1 <1>                0.0000
     16 C16         28.4828  36.6887  39.4484 C.ar           1 <1>                0.0000
     17 H17         31.3135  38.2792  33.9495 H              1 <1>                0.0000
     18 H18         32.8206  38.8947  34.6693 H              1 <1>                0.0000
     19 H19         32.8870  37.7109  33.3418 H              1 <1>                0.0000
     20 H20         31.8312  36.0103  34.8054 H              1 <1>                0.0000
     21 H21         33.3383  36.6258  35.5252 H              1 <1>                0.0000
     22 H22         31.0572  36.0609  39.4995 H              1 <1>                0.0000
     23 H23         31.3650  37.7702  39.1097 H              1 <1>                0.0000
     24 H24         29.4574  38.0283  36.6113 H              1 <1>                0.0000
     25 H25         26.8682  38.0974  36.8858 H              1 <1>                0.0000
     26 H26         25.1159  37.1157  39.1401 H              1 <1>                0.0000
     27 H27         27.3465  35.3509  42.3311 H              1 <1>                0.0000
     28 H28         29.4443  35.7794  41.1373 H              1 <1>                0.0000
     29 H29         24.0627  36.2168  41.1145 H              1 <1>                0.0000
     30 H30         24.9401  35.5236  42.3684 H              1 <1>                0.0000
@<TRIPOS>BOND
    1    1    2 1     
    2    1   17 1     
    3    1   18 1     
    4    1   19 1     
    5    2    3 1     
    6    2   20 1     
    7    2   21 1     
    8    3    4 1     
    9    4    5 2     
   10    4    6 1     
   11    6    7 1     
   12    6   22 1     
   13    6   23 1     
   14    7    8 1     
   15    7   16 1     
   16    8    9 2     
   17    8   24 1     
   18    9   10 1     
   19    9   25 1     
   20   10   11 ar    
   21   10   16 ar    
   22   11   12 ar    
   23   11   26 1     
   24   12   13 1     
   25   12   14 ar    
   26   13   29 1     
   27   13   30 1     
   28   14   15 ar    
   29   14   27 1     
   30   15   16 ar    
   31   15   28 1     
@<TRIPOS>SUBSTRUCTURE
      1 ****           1
@<TRIPOS>SET
DONOR_HYDROGENS      STATIC     ATOMS    <user>   **** ""
2 29 30
ATOM$RED        STATIC     ATOMS    COLORGROUP SYSTEM
2 29 30
@<TRIPOS>COMMENT
> <Gold.Version>
2022.2.0

> <Gold.Id.Protein>
1qkm|1qkm_protein|mol2

> <Gold.Protein.RotatedTorsions>
[  496  491  490  487 ] final   62.45 input  -89.99 | X-H torsion

> <Gold.Protein.ActiveResidues>
 MET295  LEU298  THR299  LEU301  ALA302  GLU305  TRP335  MET336  LEU339  MET340 
 GLY342  LEU343  ARG346  PHE356  ILE373  ILE376  PHE377  LEU380  LYS471  GLY472 
 MET473  HIS475  LEU476  LEU477  ASN478  MET479  VAL484  VAL487 

> <Gold.Protein.RotatedAtoms>
   36.5720   33.2883   42.2871 H   0  0  0  0  0  0  0  0  0  0  0  0  # atno 496  bound_to 491 

> <Gold.Score>
     Score     S(PLP)   S(hbond)     S(cho)   S(metal)  DE(clash)   DE(tors)     intcor
     58.80     -53.68       1.93       0.00       0.00       0.00       0.36       0.04

> <Gold.PLP.Fitness>
58.8048

> <Gold.PLP.PLP>
-53.6783

> <Gold.PLP.part.hbond>
-2.0000

> <Gold.PLP.part.metal>
0.0000

> <Gold.PLP.part.buried>
-3.2900

> <Gold.PLP.part.nonpolar>
-49.5935

> <Gold.PLP.part.repulsive>
0.1734

> <Gold.PLP.ligand.clash>
0.0000

> <Gold.PLP.ligand.torsion>
0.3602

> <Gold.PLP.Chemscore.Hbond>
1.9348

> <Gold.PLP.Chemscore.CHOScore>
0.0000

> <Gold.PLP.Chemscore.Metal>
0.0000

> <Gold.Chemscore.Hbonds>
donor molecule, donor type, donor heavy atom, donor atom, acceptor molecule, acceptor atom, score
      L1  H    13    29       P1  1131  0.96
      L1  H    13    30       P1   582  0.98

> <Gold.PLP.Chemscore.Internal.Correction>
0.0425

