#       Name:                EN300-61143_i001
#       Creating user name   aseyller
#       Creation time:       Sat Apr 22 07:36:23 2023


#       File generated by GOLD software.
#

@<TRIPOS>MOLECULE
EN300-61143_i001|amine_3|mol2|4017|dock19
    30    31     1
SMALL
USER_CHARGES


@<TRIPOS>ATOM
      1 C1          25.5433  37.2793  40.4015 C.3            1 <1>                0.0000
      2 C2          26.0773  36.6052  39.1360 C.3            1 <1>                0.0000
      3 O3          27.4771  36.9478  38.9590 O.3            1 <1>                0.0000
      4 C4          28.3697  36.2604  39.6888 C.2            1 <1>                0.0000
      5 O5          28.0434  35.2295  40.2281 O.2            1 <1>                0.0000
      6 C6          29.7786  36.7744  39.8357 C.3            1 <1>                0.0000
      7 N7          30.6245  36.1851  38.7948 N.pl3          1 <1>                0.0000
      8 C8          31.2646  34.9799  38.8908 C.2            1 <1>                0.0000
      9 C9          31.9545  34.7370  37.7651 C.2            1 <1>                0.0000
     10 C10         31.7388  35.8802  36.8746 C.ar           1 <1>                0.0000
     11 C11         32.1819  36.2053  35.5906 C.ar           1 <1>                0.0000
     12 C12         31.7851  37.3965  35.0129 C.ar           1 <1>                0.0000
     13 N13         32.2255  37.7285  33.7265 N.pl3          1 <1>                0.0000
     14 C14         30.9475  38.2684  35.7071 C.ar           1 <1>                0.0000
     15 C15         30.5060  37.9568  36.9732 C.ar           1 <1>                0.0000
     16 C16         30.8896  36.7598  37.5691 C.ar           1 <1>                0.0000
     17 H17         26.1135  36.9354  41.2645 H              1 <1>                0.0000
     18 H18         25.6437  38.3606  40.3072 H              1 <1>                0.0000
     19 H19         24.4925  37.0221  40.5344 H              1 <1>                0.0000
     20 H20         25.9769  35.5239  39.2304 H              1 <1>                0.0000
     21 H21         25.5071  36.9491  38.2731 H              1 <1>                0.0000
     22 H22         29.7818  37.8598  39.7351 H              1 <1>                0.0000
     23 H23         30.1653  36.4993  40.8170 H              1 <1>                0.0000
     24 H24         31.2216  34.3215  39.7458 H              1 <1>                0.0000
     25 H25         32.5551  33.8642  37.5556 H              1 <1>                0.0000
     26 H26         32.8309  35.5301  35.0526 H              1 <1>                0.0000
     27 H27         30.6424  39.1969  35.2474 H              1 <1>                0.0000
     28 H28         29.8576  38.6397  37.5020 H              1 <1>                0.0000
     29 H29         32.8081  37.1229  33.2420 H              1 <1>                0.0000
     30 H30         31.9480  38.5641  33.3195 H              1 <1>                0.0000
@<TRIPOS>BOND
    1    1    2 1     
    2    1   17 1     
    3    1   18 1     
    4    1   19 1     
    5    2    3 1     
    6    2   20 1     
    7    2   21 1     
    8    3    4 1     
    9    4    5 2     
   10    4    6 1     
   11    6    7 1     
   12    6   22 1     
   13    6   23 1     
   14    7    8 1     
   15    7   16 1     
   16    8    9 2     
   17    8   24 1     
   18    9   10 1     
   19    9   25 1     
   20   10   11 ar    
   21   10   16 ar    
   22   11   12 ar    
   23   11   26 1     
   24   12   13 1     
   25   12   14 ar    
   26   13   29 1     
   27   13   30 1     
   28   14   15 ar    
   29   14   27 1     
   30   15   16 ar    
   31   15   28 1     
@<TRIPOS>SUBSTRUCTURE
      1 ****           1
@<TRIPOS>SET
DONOR_HYDROGENS      STATIC     ATOMS    <user>   **** ""
2 29 30
ATOM$RED        STATIC     ATOMS    COLORGROUP SYSTEM
2 29 30
@<TRIPOS>COMMENT
> <Gold.Version>
2022.2.0

> <Gold.Id.Protein>
1qkm|1qkm_protein|mol2

> <Gold.Protein.RotatedTorsions>
[  496  491  490  487 ] final   89.38 input  -89.99 | X-H torsion

> <Gold.Protein.ActiveResidues>
 MET295  LEU298  THR299  LEU301  ALA302  GLU305  TRP335  MET336  LEU339  MET340 
 GLY342  LEU343  ARG346  PHE356  ILE373  ILE376  PHE377  LEU380  LYS471  GLY472 
 MET473  HIS475  LEU476  LEU477  ASN478  MET479  VAL484  VAL487 

> <Gold.Protein.RotatedAtoms>
   36.8145   33.0261   42.0316 H   0  0  0  0  0  0  0  0  0  0  0  0  # atno 496  bound_to 491 

> <Gold.Score>
     Score     S(PLP)   S(hbond)     S(cho)   S(metal)  DE(clash)   DE(tors)     intcor
     52.98     -52.51       0.00       0.84       0.00       0.00       1.03       0.00

> <Gold.PLP.Fitness>
52.9773

> <Gold.PLP.PLP>
-52.5104

> <Gold.PLP.part.hbond>
-0.7121

> <Gold.PLP.part.metal>
0.0000

> <Gold.PLP.part.buried>
-4.3868

> <Gold.PLP.part.nonpolar>
-48.3589

> <Gold.PLP.part.repulsive>
0.1403

> <Gold.PLP.ligand.clash>
0.0000

> <Gold.PLP.ligand.torsion>
1.0281

> <Gold.PLP.Chemscore.Hbond>
0.0000

> <Gold.PLP.Chemscore.CHOScore>
0.8408

> <Gold.PLP.Chemscore.Metal>
0.0000

> <Gold.Chemscore.Hbonds>
donor molecule, donor type, donor heavy atom, donor atom, acceptor molecule, acceptor atom, score
      L1  C     8    24       P1   470  0.84

> <Gold.PLP.Chemscore.Internal.Correction>
0.0007

