#       Name:                EN300-61143_i001
#       Creating user name   aseyller
#       Creation time:       Sat Apr 22 07:36:21 2023


#       File generated by GOLD software.
#

@<TRIPOS>MOLECULE
EN300-61143_i001|amine_3|mol2|4017|dock16
    30    31     1
SMALL
USER_CHARGES


@<TRIPOS>ATOM
      1 C1          25.8039  37.0000  41.4052 C.3            1 <1>                0.0000
      2 C2          26.9512  36.0486  41.0596 C.3            1 <1>                0.0000
      3 O3          27.8550  36.6987  40.1276 O.3            1 <1>                0.0000
      4 C4          27.5042  36.6899  38.8320 C.2            1 <1>                0.0000
      5 O5          26.4850  36.1411  38.4857 O.2            1 <1>                0.0000
      6 C6          28.3816  37.3644  37.8092 C.3            1 <1>                0.0000
      7 N7          29.7127  36.7528  37.8281 N.pl3          1 <1>                0.0000
      8 C8          30.1685  35.8916  38.7882 C.2            1 <1>                0.0000
      9 C9          31.4269  35.5176  38.5076 C.2            1 <1>                0.0000
     10 C10         31.8089  36.1948  37.2658 C.ar           1 <1>                0.0000
     11 C11         32.9672  36.2067  36.4856 C.ar           1 <1>                0.0000
     12 C12         33.0081  36.9735  35.3364 C.ar           1 <1>                0.0000
     13 N13         34.1658  36.9901  34.5500 N.pl3          1 <1>                0.0000
     14 C14         31.9000  37.7301  34.9578 C.ar           1 <1>                0.0000
     15 C15         30.7541  37.7249  35.7206 C.ar           1 <1>                0.0000
     16 C16         30.6916  36.9549  36.8774 C.ar           1 <1>                0.0000
     17 H17         26.2068  37.9046  41.8608 H              1 <1>                0.0000
     18 H18         25.2622  37.2614  40.4962 H              1 <1>                0.0000
     19 H19         25.1254  36.5120  42.1049 H              1 <1>                0.0000
     20 H20         27.4928  35.7872  41.9687 H              1 <1>                0.0000
     21 H21         26.5482  35.1440  40.6040 H              1 <1>                0.0000
     22 H22         27.9417  37.2466  36.8188 H              1 <1>                0.0000
     23 H23         28.4657  38.4252  38.0455 H              1 <1>                0.0000
     24 H24         29.6002  35.5615  39.6452 H              1 <1>                0.0000
     25 H25         32.0415  34.8451  39.0875 H              1 <1>                0.0000
     26 H26         33.8259  35.6208  36.7787 H              1 <1>                0.0000
     27 H27         31.9411  38.3260  34.0579 H              1 <1>                0.0000
     28 H28         29.9017  38.3150  35.4181 H              1 <1>                0.0000
     29 H29         34.9375  36.4642  34.8118 H              1 <1>                0.0000
     30 H30         34.1963  37.5276  33.7431 H              1 <1>                0.0000
@<TRIPOS>BOND
    1    1    2 1     
    2    1   17 1     
    3    1   18 1     
    4    1   19 1     
    5    2    3 1     
    6    2   20 1     
    7    2   21 1     
    8    3    4 1     
    9    4    5 2     
   10    4    6 1     
   11    6    7 1     
   12    6   22 1     
   13    6   23 1     
   14    7    8 1     
   15    7   16 1     
   16    8    9 2     
   17    8   24 1     
   18    9   10 1     
   19    9   25 1     
   20   10   11 ar    
   21   10   16 ar    
   22   11   12 ar    
   23   11   26 1     
   24   12   13 1     
   25   12   14 ar    
   26   13   29 1     
   27   13   30 1     
   28   14   15 ar    
   29   14   27 1     
   30   15   16 ar    
   31   15   28 1     
@<TRIPOS>SUBSTRUCTURE
      1 ****           1
@<TRIPOS>SET
DONOR_HYDROGENS      STATIC     ATOMS    <user>   **** ""
2 29 30
ATOM$RED        STATIC     ATOMS    COLORGROUP SYSTEM
2 29 30
@<TRIPOS>COMMENT
> <Gold.Version>
2022.2.0

> <Gold.Id.Protein>
1qkm|1qkm_protein|mol2

> <Gold.Protein.RotatedTorsions>
[  496  491  490  487 ] final   58.22 input  -89.99 | X-H torsion

> <Gold.Protein.ActiveResidues>
 MET295  LEU298  THR299  LEU301  ALA302  GLU305  TRP335  MET336  LEU339  MET340 
 GLY342  LEU343  ARG346  PHE356  ILE373  ILE376  PHE377  LEU380  LYS471  GLY472 
 MET473  HIS475  LEU476  LEU477  ASN478  MET479  VAL484  VAL487 

> <Gold.Protein.RotatedAtoms>
   36.5369   33.3423   42.3138 H   0  0  0  0  0  0  0  0  0  0  0  0  # atno 496  bound_to 491 

> <Gold.Score>
     Score     S(PLP)   S(hbond)     S(cho)   S(metal)  DE(clash)   DE(tors)     intcor
     53.60     -51.71       0.78       0.00       0.00       0.00       0.23       0.00

> <Gold.PLP.Fitness>
53.6023

> <Gold.PLP.PLP>
-51.7123

> <Gold.PLP.part.hbond>
-1.0000

> <Gold.PLP.part.metal>
0.0000

> <Gold.PLP.part.buried>
-3.7022

> <Gold.PLP.part.nonpolar>
-47.2004

> <Gold.PLP.part.repulsive>
0.1969

> <Gold.PLP.ligand.clash>
0.0000

> <Gold.PLP.ligand.torsion>
0.2314

> <Gold.PLP.Chemscore.Hbond>
0.7840

> <Gold.PLP.Chemscore.CHOScore>
0.0000

> <Gold.PLP.Chemscore.Metal>
0.0000

> <Gold.Chemscore.Hbonds>
donor molecule, donor type, donor heavy atom, donor atom, acceptor molecule, acceptor atom, score
      L1  H    13    30       P1  3229  0.78

> <Gold.PLP.Chemscore.Internal.Correction>
0.0007

