#       Name:                EN300-61143_i001
#       Creating user name   aseyller
#       Creation time:       Sat Apr 22 07:36:24 2023


#       File generated by GOLD software.
#

@<TRIPOS>MOLECULE
EN300-61143_i001|amine_3|mol2|4017|dock20
    30    31     1
SMALL
USER_CHARGES


@<TRIPOS>ATOM
      1 C1          25.5100  37.3215  41.6449 C.3            1 <1>                0.0000
      2 C2          26.1634  36.3993  40.6136 C.3            1 <1>                0.0000
      3 O3          27.6053  36.5635  40.6623 O.3            1 <1>                0.0000
      4 C4          28.3124  36.0441  39.6465 C.2            1 <1>                0.0000
      5 O5          27.7531  35.4108  38.7827 O.2            1 <1>                0.0000
      6 C6          29.8038  36.2506  39.5833 C.3            1 <1>                0.0000
      7 N7          30.1427  36.9946  38.3676 N.pl3          1 <1>                0.0000
      8 C8          29.4246  38.0432  37.8618 C.2            1 <1>                0.0000
      9 C9          30.0063  38.4979  36.7406 C.2            1 <1>                0.0000
     10 C10         31.1946  37.6729  36.5088 C.ar           1 <1>                0.0000
     11 C11         32.1866  37.6575  35.5258 C.ar           1 <1>                0.0000
     12 C12         33.2029  36.7235  35.5966 C.ar           1 <1>                0.0000
     13 N13         34.2002  36.7024  34.6148 N.pl3          1 <1>                0.0000
     14 C14         33.2383  35.8026  36.6427 C.ar           1 <1>                0.0000
     15 C15         32.2647  35.8099  37.6160 C.ar           1 <1>                0.0000
     16 C16         31.2370  36.7460  37.5653 C.ar           1 <1>                0.0000
     17 H17         25.8713  37.0662  42.6411 H              1 <1>                0.0000
     18 H18         25.7656  38.3570  41.4200 H              1 <1>                0.0000
     19 H19         24.4276  37.1983  41.6084 H              1 <1>                0.0000
     20 H20         25.9078  35.3639  40.8385 H              1 <1>                0.0000
     21 H21         25.8021  36.6546  39.6174 H              1 <1>                0.0000
     22 H22         30.1298  36.8147  40.4573 H              1 <1>                0.0000
     23 H23         30.3044  35.2824  39.5683 H              1 <1>                0.0000
     24 H24         28.5230  38.4457  38.2995 H              1 <1>                0.0000
     25 H25         29.6630  39.3166  36.1255 H              1 <1>                0.0000
     26 H26         32.1595  38.3706  34.7152 H              1 <1>                0.0000
     27 H27         34.0365  35.0767  36.6899 H              1 <1>                0.0000
     28 H28         32.3016  35.0917  38.4217 H              1 <1>                0.0000
     29 H29         34.1773  37.3425  33.8863 H              1 <1>                0.0000
     30 H30         34.9143  36.0476  34.6628 H              1 <1>                0.0000
@<TRIPOS>BOND
    1    1    2 1     
    2    1   17 1     
    3    1   18 1     
    4    1   19 1     
    5    2    3 1     
    6    2   20 1     
    7    2   21 1     
    8    3    4 1     
    9    4    5 2     
   10    4    6 1     
   11    6    7 1     
   12    6   22 1     
   13    6   23 1     
   14    7    8 1     
   15    7   16 1     
   16    8    9 2     
   17    8   24 1     
   18    9   10 1     
   19    9   25 1     
   20   10   11 ar    
   21   10   16 ar    
   22   11   12 ar    
   23   11   26 1     
   24   12   13 1     
   25   12   14 ar    
   26   13   29 1     
   27   13   30 1     
   28   14   15 ar    
   29   14   27 1     
   30   15   16 ar    
   31   15   28 1     
@<TRIPOS>SUBSTRUCTURE
      1 ****           1
@<TRIPOS>SET
DONOR_HYDROGENS      STATIC     ATOMS    <user>   **** ""
2 29 30
ATOM$RED        STATIC     ATOMS    COLORGROUP SYSTEM
2 29 30
@<TRIPOS>COMMENT
> <Gold.Version>
2022.2.0

> <Gold.Id.Protein>
1qkm|1qkm_protein|mol2

> <Gold.Protein.RotatedTorsions>
[  496  491  490  487 ] final -131.48 input  -89.99 | X-H torsion

> <Gold.Protein.ActiveResidues>
 MET295  LEU298  THR299  LEU301  ALA302  GLU305  TRP335  MET336  LEU339  MET340 
 GLY342  LEU343  ARG346  PHE356  ILE373  ILE376  PHE377  LEU380  LYS471  GLY472 
 MET473  HIS475  LEU476  LEU477  ASN478  MET479  VAL484  VAL487 

> <Gold.Protein.RotatedAtoms>
   37.1157   34.1996   40.7445 H   0  0  0  0  0  0  0  0  0  0  0  0  # atno 496  bound_to 491 

> <Gold.Score>
     Score     S(PLP)   S(hbond)     S(cho)   S(metal)  DE(clash)   DE(tors)     intcor
     52.64     -50.88       0.82       0.00       0.00       0.00       0.34       0.00

> <Gold.PLP.Fitness>
52.6417

> <Gold.PLP.PLP>
-50.8824

> <Gold.PLP.part.hbond>
-1.0000

> <Gold.PLP.part.metal>
0.0000

> <Gold.PLP.part.buried>
-1.9188

> <Gold.PLP.part.nonpolar>
-48.6879

> <Gold.PLP.part.repulsive>
0.1560

> <Gold.PLP.ligand.clash>
0.0000

> <Gold.PLP.ligand.torsion>
0.3446

> <Gold.PLP.Chemscore.Hbond>
0.8160

> <Gold.PLP.Chemscore.CHOScore>
0.0000

> <Gold.PLP.Chemscore.Metal>
0.0000

> <Gold.Chemscore.Hbonds>
donor molecule, donor type, donor heavy atom, donor atom, acceptor molecule, acceptor atom, score
      L1  H    13    29       P1  3229  0.82

> <Gold.PLP.Chemscore.Internal.Correction>
0.0006

