#       Name:                EN300-61143_i001
#       Creating user name   aseyller
#       Creation time:       Sat Apr 22 07:36:13 2023


#       File generated by GOLD software.
#

@<TRIPOS>MOLECULE
EN300-61143_i001|amine_3|mol2|4017|dock1
    30    31     1
SMALL
USER_CHARGES


@<TRIPOS>ATOM
      1 C1          33.4860  36.7058  34.7760 C.3            1 <1>                0.0000
      2 C2          32.9538  36.5111  36.1972 C.3            1 <1>                0.0000
      3 O3          31.5053  36.4179  36.1631 O.3            1 <1>                0.0000
      4 C4          30.8227  37.5695  36.0653 C.2            1 <1>                0.0000
      5 O5          31.3564  38.5510  35.6052 O.2            1 <1>                0.0000
      6 C6          29.3906  37.6384  36.5293 C.3            1 <1>                0.0000
      7 N7          29.2938  37.1153  37.8943 N.pl3          1 <1>                0.0000
      8 C8          30.3555  36.7254  38.6639 C.2            1 <1>                0.0000
      9 C9          29.9211  36.2968  39.8597 C.2            1 <1>                0.0000
     10 C10         28.4615  36.4223  39.8561 C.ar           1 <1>                0.0000
     11 C11         27.4628  36.1435  40.7919 C.ar           1 <1>                0.0000
     12 C12         26.1401  36.3819  40.4698 C.ar           1 <1>                0.0000
     13 N13         25.1342  36.1046  41.4028 N.pl3          1 <1>                0.0000
     14 C14         25.8043  36.8978  39.2189 C.ar           1 <1>                0.0000
     15 C15         26.7816  37.1754  38.2900 C.ar           1 <1>                0.0000
     16 C16         28.1190  36.9478  38.5977 C.ar           1 <1>                0.0000
     17 H17         33.1909  35.8576  34.1582 H              1 <1>                0.0000
     18 H18         33.0726  37.6227  34.3557 H              1 <1>                0.0000
     19 H19         34.5734  36.7758  34.8016 H              1 <1>                0.0000
     20 H20         33.3672  35.5943  36.6175 H              1 <1>                0.0000
     21 H21         33.2489  37.3593  36.8150 H              1 <1>                0.0000
     22 H22         29.0526  38.6746  36.5125 H              1 <1>                0.0000
     23 H23         28.7646  37.0413  35.8661 H              1 <1>                0.0000
     24 H24         31.3898  36.7573  38.3551 H              1 <1>                0.0000
     25 H25         30.5321  35.9288  40.6707 H              1 <1>                0.0000
     26 H26         27.7225  35.7437  41.7610 H              1 <1>                0.0000
     27 H27         24.7680  37.0812  38.9763 H              1 <1>                0.0000
     28 H28         26.5103  37.5746  37.3239 H              1 <1>                0.0000
     29 H29         25.3661  35.7459  42.2736 H              1 <1>                0.0000
     30 H30         24.2054  36.2713  41.1785 H              1 <1>                0.0000
@<TRIPOS>BOND
    1    1    2 1     
    2    1   17 1     
    3    1   18 1     
    4    1   19 1     
    5    2    3 1     
    6    2   20 1     
    7    2   21 1     
    8    3    4 1     
    9    4    5 2     
   10    4    6 1     
   11    6    7 1     
   12    6   22 1     
   13    6   23 1     
   14    7    8 1     
   15    7   16 1     
   16    8    9 2     
   17    8   24 1     
   18    9   10 1     
   19    9   25 1     
   20   10   11 ar    
   21   10   16 ar    
   22   11   12 ar    
   23   11   26 1     
   24   12   13 1     
   25   12   14 ar    
   26   13   29 1     
   27   13   30 1     
   28   14   15 ar    
   29   14   27 1     
   30   15   16 ar    
   31   15   28 1     
@<TRIPOS>SUBSTRUCTURE
      1 ****           1
@<TRIPOS>SET
DONOR_HYDROGENS      STATIC     ATOMS    <user>   **** ""
2 29 30
ATOM$RED        STATIC     ATOMS    COLORGROUP SYSTEM
2 29 30
@<TRIPOS>COMMENT
> <Gold.Version>
2022.2.0

> <Gold.Id.Protein>
1qkm|1qkm_protein|mol2

> <Gold.Protein.RotatedTorsions>
[  496  491  490  487 ] final -124.99 input  -89.99 | X-H torsion

> <Gold.Protein.ActiveResidues>
 MET295  LEU298  THR299  LEU301  ALA302  GLU305  TRP335  MET336  LEU339  MET340 
 GLY342  LEU343  ARG346  PHE356  ILE373  ILE376  PHE377  LEU380  LYS471  GLY472 
 MET473  HIS475  LEU476  LEU477  ASN478  MET479  VAL484  VAL487 

> <Gold.Protein.RotatedAtoms>
   37.0664   34.2903   40.7722 H   0  0  0  0  0  0  0  0  0  0  0  0  # atno 496  bound_to 491 

> <Gold.Score>
     Score     S(PLP)   S(hbond)     S(cho)   S(metal)  DE(clash)   DE(tors)     intcor
     57.56     -53.94       1.53       0.00       0.00       0.00       0.51       0.04

> <Gold.PLP.Fitness>
57.5557

> <Gold.PLP.PLP>
-53.9397

> <Gold.PLP.part.hbond>
-1.8841

> <Gold.PLP.part.metal>
0.0000

> <Gold.PLP.part.buried>
-3.6217

> <Gold.PLP.part.nonpolar>
-50.2774

> <Gold.PLP.part.repulsive>
0.1680

> <Gold.PLP.ligand.clash>
0.0000

> <Gold.PLP.ligand.torsion>
0.5059

> <Gold.PLP.Chemscore.Hbond>
1.5282

> <Gold.PLP.Chemscore.CHOScore>
0.0000

> <Gold.PLP.Chemscore.Metal>
0.0000

> <Gold.Chemscore.Hbonds>
donor molecule, donor type, donor heavy atom, donor atom, acceptor molecule, acceptor atom, score
      L1  H    13    29       P1   582  0.99
      L1  H    13    30       P1  1131  0.54

> <Gold.PLP.Chemscore.Internal.Correction>
0.0433

