#       Name:                EN300-61143_i001
#       Creating user name   aseyller
#       Creation time:       Sat Apr 22 07:36:20 2023


#       File generated by GOLD software.
#

@<TRIPOS>MOLECULE
EN300-61143_i001|amine_3|mol2|4017|dock12
    30    31     1
SMALL
USER_CHARGES


@<TRIPOS>ATOM
      1 C1          25.8007  37.0896  41.2960 C.3            1 <1>                0.0000
      2 C2          26.5768  35.8330  40.8965 C.3            1 <1>                0.0000
      3 O3          27.3255  36.0930  39.6799 O.3            1 <1>                0.0000
      4 C4          28.5163  36.6976  39.8147 C.2            1 <1>                0.0000
      5 O5          29.0611  36.7256  40.8928 O.2            1 <1>                0.0000
      6 C6          29.1738  37.3415  38.6214 C.3            1 <1>                0.0000
      7 N7          30.4147  36.6301  38.3045 N.pl3          1 <1>                0.0000
      8 C8          30.9399  35.6011  39.0369 C.2            1 <1>                0.0000
      9 C9          32.0816  35.1746  38.4740 C.2            1 <1>                0.0000
     10 C10         32.3065  35.9978  37.2832 C.ar           1 <1>                0.0000
     11 C11         33.3024  36.0345  36.3047 C.ar           1 <1>                0.0000
     12 C12         33.2195  36.9593  35.2809 C.ar           1 <1>                0.0000
     13 N13         34.2141  37.0016  34.2971 N.pl3          1 <1>                0.0000
     14 C14         32.1483  37.8499  35.2246 C.ar           1 <1>                0.0000
     15 C15         31.1621  37.8215  36.1847 C.ar           1 <1>                0.0000
     16 C16         31.2249  36.8941  37.2197 C.ar           1 <1>                0.0000
     17 H17         26.4991  37.9089  41.4672 H              1 <1>                0.0000
     18 H18         25.1117  37.3609  40.4962 H              1 <1>                0.0000
     19 H19         25.2386  36.8946  42.2093 H              1 <1>                0.0000
     20 H20         27.2658  35.5619  41.6963 H              1 <1>                0.0000
     21 H21         25.8783  35.0139  40.7253 H              1 <1>                0.0000
     22 H22         28.4997  37.2950  37.7660 H              1 <1>                0.0000
     23 H23         29.4002  38.3831  38.8493 H              1 <1>                0.0000
     24 H24         30.5013  35.1924  39.9352 H              1 <1>                0.0000
     25 H25         32.7147  34.3759  38.8315 H              1 <1>                0.0000
     26 H26         34.1324  35.3449  36.3480 H              1 <1>                0.0000
     27 H27         32.0917  38.5688  34.4206 H              1 <1>                0.0000
     28 H28         30.3370  38.5162  36.1316 H              1 <1>                0.0000
     29 H29         34.9599  36.3826  34.3346 H              1 <1>                0.0000
     30 H30         34.1575  37.6499  33.5778 H              1 <1>                0.0000
@<TRIPOS>BOND
    1    1    2 1     
    2    1   17 1     
    3    1   18 1     
    4    1   19 1     
    5    2    3 1     
    6    2   20 1     
    7    2   21 1     
    8    3    4 1     
    9    4    5 2     
   10    4    6 1     
   11    6    7 1     
   12    6   22 1     
   13    6   23 1     
   14    7    8 1     
   15    7   16 1     
   16    8    9 2     
   17    8   24 1     
   18    9   10 1     
   19    9   25 1     
   20   10   11 ar    
   21   10   16 ar    
   22   11   12 ar    
   23   11   26 1     
   24   12   13 1     
   25   12   14 ar    
   26   13   29 1     
   27   13   30 1     
   28   14   15 ar    
   29   14   27 1     
   30   15   16 ar    
   31   15   28 1     
@<TRIPOS>SUBSTRUCTURE
      1 ****           1
@<TRIPOS>SET
DONOR_HYDROGENS      STATIC     ATOMS    <user>   **** ""
2 29 30
ATOM$RED        STATIC     ATOMS    COLORGROUP SYSTEM
2 29 30
@<TRIPOS>COMMENT
> <Gold.Version>
2022.2.0

> <Gold.Id.Protein>
1qkm|1qkm_protein|mol2

> <Gold.Protein.RotatedTorsions>
[  496  491  490  487 ] final   61.21 input  -89.99 | X-H torsion

> <Gold.Protein.ActiveResidues>
 MET295  LEU298  THR299  LEU301  ALA302  GLU305  TRP335  MET336  LEU339  MET340 
 GLY342  LEU343  ARG346  PHE356  ILE373  ILE376  PHE377  LEU380  LYS471  GLY472 
 MET473  HIS475  LEU476  LEU477  ASN478  MET479  VAL484  VAL487 

> <Gold.Protein.RotatedAtoms>
   36.5616   33.3038   42.2954 H   0  0  0  0  0  0  0  0  0  0  0  0  # atno 496  bound_to 491 

> <Gold.Score>
     Score     S(PLP)   S(hbond)     S(cho)   S(metal)  DE(clash)   DE(tors)     intcor
     57.24     -53.86       0.59       0.80       0.00       0.00       0.40       0.00

> <Gold.PLP.Fitness>
57.2447

> <Gold.PLP.PLP>
-53.8568

> <Gold.PLP.part.hbond>
-0.7405

> <Gold.PLP.part.metal>
0.0000

> <Gold.PLP.part.buried>
-4.0732

> <Gold.PLP.part.nonpolar>
-48.7955

> <Gold.PLP.part.repulsive>
0.2446

> <Gold.PLP.ligand.clash>
0.0000

> <Gold.PLP.ligand.torsion>
0.3956

> <Gold.PLP.Chemscore.Hbond>
0.5920

> <Gold.PLP.Chemscore.CHOScore>
0.7998

> <Gold.PLP.Chemscore.Metal>
0.0000

> <Gold.Chemscore.Hbonds>
donor molecule, donor type, donor heavy atom, donor atom, acceptor molecule, acceptor atom, score
      L1  H    13    30       P1  3229  0.59
      L1  C     8    24       P1   470  0.80

> <Gold.PLP.Chemscore.Internal.Correction>
0.0036

