#       Name:                EN300-61143_i001
#       Creating user name   aseyller
#       Creation time:       Sat Apr 22 07:36:16 2023


#       File generated by GOLD software.
#

@<TRIPOS>MOLECULE
EN300-61143_i001|amine_3|mol2|4017|dock6
    30    31     1
SMALL
USER_CHARGES


@<TRIPOS>ATOM
      1 C1          25.8794  36.9573  40.3731 C.3            1 <1>                0.0000
      2 C2          26.0899  36.6542  38.8883 C.3            1 <1>                0.0000
      3 O3          27.4485  37.0009  38.5114 O.3            1 <1>                0.0000
      4 C4          28.4377  36.2918  39.0775 C.2            1 <1>                0.0000
      5 O5          28.2501  35.1419  39.3974 O.2            1 <1>                0.0000
      6 C6          29.7822  36.9300  39.3141 C.3            1 <1>                0.0000
      7 N7          30.8203  36.1459  38.6404 N.pl3          1 <1>                0.0000
      8 C8          31.2165  34.8883  39.0049 C.2            1 <1>                0.0000
      9 C9          32.1851  34.4569  38.1816 C.2            1 <1>                0.0000
     10 C10         32.4298  35.5256  37.2099 C.ar           1 <1>                0.0000
     11 C11         33.2990  35.6693  36.1261 C.ar           1 <1>                0.0000
     12 C12         33.2816  36.8374  35.3876 C.ar           1 <1>                0.0000
     13 N13         34.1500  36.9881  34.3003 N.pl3          1 <1>                0.0000
     14 C14         32.4018  37.8660  35.7217 C.ar           1 <1>                0.0000
     15 C15         31.5417  37.7337  36.7884 C.ar           1 <1>                0.0000
     16 C16         31.5402  36.5632  37.5401 C.ar           1 <1>                0.0000
     17 H17         26.5817  36.3719  40.9666 H              1 <1>                0.0000
     18 H18         26.0471  38.0190  40.5546 H              1 <1>                0.0000
     19 H19         24.8594  36.6971  40.6561 H              1 <1>                0.0000
     20 H20         25.9221  35.5926  38.7069 H              1 <1>                0.0000
     21 H21         25.3875  37.2397  38.2949 H              1 <1>                0.0000
     22 H22         29.7778  37.9448  38.9163 H              1 <1>                0.0000
     23 H23         29.9868  36.9601  40.3844 H              1 <1>                0.0000
     24 H24         30.8104  34.3259  39.8326 H              1 <1>                0.0000
     25 H25         32.6890  33.5027  38.2273 H              1 <1>                0.0000
     26 H26         33.9808  34.8727  35.8670 H              1 <1>                0.0000
     27 H27         32.3951  38.7750  35.1386 H              1 <1>                0.0000
     28 H28         30.8646  38.5369  37.0386 H              1 <1>                0.0000
     29 H29         34.7626  36.2734  34.0663 H              1 <1>                0.0000
     30 H30         34.1392  37.8071  33.7808 H              1 <1>                0.0000
@<TRIPOS>BOND
    1    1    2 1     
    2    1   17 1     
    3    1   18 1     
    4    1   19 1     
    5    2    3 1     
    6    2   20 1     
    7    2   21 1     
    8    3    4 1     
    9    4    5 2     
   10    4    6 1     
   11    6    7 1     
   12    6   22 1     
   13    6   23 1     
   14    7    8 1     
   15    7   16 1     
   16    8    9 2     
   17    8   24 1     
   18    9   10 1     
   19    9   25 1     
   20   10   11 ar    
   21   10   16 ar    
   22   11   12 ar    
   23   11   26 1     
   24   12   13 1     
   25   12   14 ar    
   26   13   29 1     
   27   13   30 1     
   28   14   15 ar    
   29   14   27 1     
   30   15   16 ar    
   31   15   28 1     
@<TRIPOS>SUBSTRUCTURE
      1 ****           1
@<TRIPOS>SET
DONOR_HYDROGENS      STATIC     ATOMS    <user>   **** ""
2 29 30
ATOM$RED        STATIC     ATOMS    COLORGROUP SYSTEM
2 29 30
@<TRIPOS>COMMENT
> <Gold.Version>
2022.2.0

> <Gold.Id.Protein>
1qkm|1qkm_protein|mol2

> <Gold.Protein.RotatedTorsions>
[  496  491  490  487 ] final -171.92 input  -89.99 | X-H torsion

> <Gold.Protein.ActiveResidues>
 MET295  LEU298  THR299  LEU301  ALA302  GLU305  TRP335  MET336  LEU339  MET340 
 GLY342  LEU343  ARG346  PHE356  ILE373  ILE376  PHE377  LEU380  LYS471  GLY472 
 MET473  HIS475  LEU476  LEU477  ASN478  MET479  VAL484  VAL487 

> <Gold.Protein.RotatedAtoms>
   37.3082   33.5800   40.8078 H   0  0  0  0  0  0  0  0  0  0  0  0  # atno 496  bound_to 491 

> <Gold.Score>
     Score     S(PLP)   S(hbond)     S(cho)   S(metal)  DE(clash)   DE(tors)     intcor
     56.81     -54.33       0.58       0.55       0.00       0.00       0.46       0.02

> <Gold.PLP.Fitness>
56.8079

> <Gold.PLP.PLP>
-54.3335

> <Gold.PLP.part.hbond>
-0.8823

> <Gold.PLP.part.metal>
0.0000

> <Gold.PLP.part.buried>
-4.2863

> <Gold.PLP.part.nonpolar>
-49.3244

> <Gold.PLP.part.repulsive>
0.1405

> <Gold.PLP.ligand.clash>
0.0000

> <Gold.PLP.ligand.torsion>
0.4633

> <Gold.PLP.Chemscore.Hbond>
0.5760

> <Gold.PLP.Chemscore.CHOScore>
0.5493

> <Gold.PLP.Chemscore.Metal>
0.0000

> <Gold.Chemscore.Hbonds>
donor molecule, donor type, donor heavy atom, donor atom, acceptor molecule, acceptor atom, score
      L1  H    13    30       P1  3229  0.58
      L1  C     8    24       P1   470  0.55

> <Gold.PLP.Chemscore.Internal.Correction>
0.0249

