#       Name:                EN300-61143_i001
#       Creating user name   aseyller
#       Creation time:       Sat Apr 22 07:36:18 2023


#       File generated by GOLD software.
#

@<TRIPOS>MOLECULE
EN300-61143_i001|amine_3|mol2|4017|dock9
    30    31     1
SMALL
USER_CHARGES


@<TRIPOS>ATOM
      1 C1          32.3866  37.6002  34.2825 C.3            1 <1>                0.0000
      2 C2          33.3029  36.6345  35.0366 C.3            1 <1>                0.0000
      3 O3          32.5639  36.0137  36.1214 O.3            1 <1>                0.0000
      4 C4          32.0911  36.8259  37.0798 C.2            1 <1>                0.0000
      5 O5          32.2595  38.0195  36.9974 O.2            1 <1>                0.0000
      6 C6          31.3503  36.2491  38.2585 C.3            1 <1>                0.0000
      7 N7          29.9648  36.7247  38.2449 N.pl3          1 <1>                0.0000
      8 C8          29.4090  37.4989  37.2635 C.2            1 <1>                0.0000
      9 C9          28.1246  37.7571  37.5565 C.2            1 <1>                0.0000
     10 C10         27.8334  37.0941  38.8301 C.ar           1 <1>                0.0000
     11 C11         26.6953  36.9972  39.6338 C.ar           1 <1>                0.0000
     12 C12         26.7506  36.2745  40.8107 C.ar           1 <1>                0.0000
     13 N13         25.6138  36.1733  41.6210 N.pl3          1 <1>                0.0000
     14 C14         27.9347  35.6458  41.1933 C.ar           1 <1>                0.0000
     15 C15         29.0616  35.7361  40.4078 C.ar           1 <1>                0.0000
     16 C16         29.0241  36.4539  39.2168 C.ar           1 <1>                0.0000
     17 H17         31.5367  37.0519  33.8760 H              1 <1>                0.0000
     18 H18         32.0289  38.3703  34.9659 H              1 <1>                0.0000
     19 H19         32.9413  38.0663  33.4681 H              1 <1>                0.0000
     20 H20         33.6605  35.8644  34.3531 H              1 <1>                0.0000
     21 H21         34.1528  37.1828  35.4430 H              1 <1>                0.0000
     22 H22         31.3615  35.1608  38.1975 H              1 <1>                0.0000
     23 H23         31.8343  36.5662  39.1823 H              1 <1>                0.0000
     24 H24         29.9268  37.8505  36.3834 H              1 <1>                0.0000
     25 H25         27.4363  38.3430  36.9654 H              1 <1>                0.0000
     26 H26         25.7779  37.4841  39.3378 H              1 <1>                0.0000
     27 H27         27.9683  35.0830  42.1145 H              1 <1>                0.0000
     28 H28         29.9736  35.2454  40.7139 H              1 <1>                0.0000
     29 H29         24.7891  36.6099  41.3562 H              1 <1>                0.0000
     30 H30         25.6507  35.6666  42.4472 H              1 <1>                0.0000
@<TRIPOS>BOND
    1    1    2 1     
    2    1   17 1     
    3    1   18 1     
    4    1   19 1     
    5    2    3 1     
    6    2   20 1     
    7    2   21 1     
    8    3    4 1     
    9    4    5 2     
   10    4    6 1     
   11    6    7 1     
   12    6   22 1     
   13    6   23 1     
   14    7    8 1     
   15    7   16 1     
   16    8    9 2     
   17    8   24 1     
   18    9   10 1     
   19    9   25 1     
   20   10   11 ar    
   21   10   16 ar    
   22   11   12 ar    
   23   11   26 1     
   24   12   13 1     
   25   12   14 ar    
   26   13   29 1     
   27   13   30 1     
   28   14   15 ar    
   29   14   27 1     
   30   15   16 ar    
   31   15   28 1     
@<TRIPOS>SUBSTRUCTURE
      1 ****           1
@<TRIPOS>SET
DONOR_HYDROGENS      STATIC     ATOMS    <user>   **** ""
2 29 30
ATOM$RED        STATIC     ATOMS    COLORGROUP SYSTEM
2 29 30
@<TRIPOS>COMMENT
> <Gold.Version>
2022.2.0

> <Gold.Id.Protein>
1qkm|1qkm_protein|mol2

> <Gold.Protein.RotatedTorsions>
[  496  491  490  487 ] final  -83.66 input  -89.99 | X-H torsion

> <Gold.Protein.ActiveResidues>
 MET295  LEU298  THR299  LEU301  ALA302  GLU305  TRP335  MET336  LEU339  MET340 
 GLY342  LEU343  ARG346  PHE356  ILE373  ILE376  PHE377  LEU380  LYS471  GLY472 
 MET473  HIS475  LEU476  LEU477  ASN478  MET479  VAL484  VAL487 

> <Gold.Protein.RotatedAtoms>
   36.6991   34.6898   41.1577 H   0  0  0  0  0  0  0  0  0  0  0  0  # atno 496  bound_to 491 

> <Gold.Score>
     Score     S(PLP)   S(hbond)     S(cho)   S(metal)  DE(clash)   DE(tors)     intcor
     56.45     -53.52       1.00       0.00       0.00       0.00       0.04       0.00

> <Gold.PLP.Fitness>
56.4463

> <Gold.PLP.PLP>
-53.5201

> <Gold.PLP.part.hbond>
-1.0000

> <Gold.PLP.part.metal>
0.0000

> <Gold.PLP.part.buried>
-2.8600

> <Gold.PLP.part.nonpolar>
-49.9827

> <Gold.PLP.part.repulsive>
0.1221

> <Gold.PLP.ligand.clash>
0.0000

> <Gold.PLP.ligand.torsion>
0.0387

> <Gold.PLP.Chemscore.Hbond>
1.0000

> <Gold.PLP.Chemscore.CHOScore>
0.0000

> <Gold.PLP.Chemscore.Metal>
0.0000

> <Gold.Chemscore.Hbonds>
donor molecule, donor type, donor heavy atom, donor atom, acceptor molecule, acceptor atom, score
      L1  H    13    30       P1   582  1.00

> <Gold.PLP.Chemscore.Internal.Correction>
0.0036

