#       Name:                EN300-61143_i001
#       Creating user name   aseyller
#       Creation time:       Sat Apr 22 07:36:22 2023


#       File generated by GOLD software.
#

@<TRIPOS>MOLECULE
EN300-61143_i001|amine_3|mol2|4017|dock17
    30    31     1
SMALL
USER_CHARGES


@<TRIPOS>ATOM
      1 C1          33.1626  37.0105  34.8658 C.3            1 <1>                0.0000
      2 C2          32.3991  38.1388  34.1694 C.3            1 <1>                0.0000
      3 O3          31.4230  38.7003  35.0860 O.3            1 <1>                0.0000
      4 C4          30.3989  37.9101  35.4448 C.2            1 <1>                0.0000
      5 O5          30.3013  36.7992  34.9798 O.2            1 <1>                0.0000
      6 C6          29.3710  38.4086  36.4275 C.3            1 <1>                0.0000
      7 N7          29.4319  37.6023  37.6491 N.pl3          1 <1>                0.0000
      8 C8          30.5686  37.0447  38.1671 C.2            1 <1>                0.0000
      9 C9          30.2768  36.3706  39.2908 C.2            1 <1>                0.0000
     10 C10         28.8349  36.5073  39.5110 C.ar           1 <1>                0.0000
     11 C11         27.9560  36.0410  40.4911 C.ar           1 <1>                0.0000
     12 C12         26.6127  36.3559  40.4088 C.ar           1 <1>                0.0000
     13 N13         25.7264  35.8918  41.3876 N.pl3          1 <1>                0.0000
     14 C14         26.1377  37.1344  39.3543 C.ar           1 <1>                0.0000
     15 C15         26.9963  37.5982  38.3833 C.ar           1 <1>                0.0000
     16 C16         28.3526  37.2969  38.4521 C.ar           1 <1>                0.0000
     17 H17         33.6739  37.4057  35.7437 H              1 <1>                0.0000
     18 H18         32.4627  36.2332  35.1723 H              1 <1>                0.0000
     19 H19         33.8954  36.5890  34.1778 H              1 <1>                0.0000
     20 H20         33.0991  38.9161  33.8630 H              1 <1>                0.0000
     21 H21         31.8879  37.7435  33.2915 H              1 <1>                0.0000
     22 H22         29.5757  39.4515  36.6699 H              1 <1>                0.0000
     23 H23         28.3773  38.3263  35.9870 H              1 <1>                0.0000
     24 H24         31.5548  37.1334  37.7359 H              1 <1>                0.0000
     25 H25         30.9732  35.8296  39.9143 H              1 <1>                0.0000
     26 H26         28.3236  35.4379  41.3081 H              1 <1>                0.0000
     27 H27         25.0864  37.3756  39.2984 H              1 <1>                0.0000
     28 H28         26.6175  38.2002  37.5707 H              1 <1>                0.0000
     29 H29         26.0552  35.3503  42.1221 H              1 <1>                0.0000
     30 H30         24.7834  36.1118  41.3314 H              1 <1>                0.0000
@<TRIPOS>BOND
    1    1    2 1     
    2    1   17 1     
    3    1   18 1     
    4    1   19 1     
    5    2    3 1     
    6    2   20 1     
    7    2   21 1     
    8    3    4 1     
    9    4    5 2     
   10    4    6 1     
   11    6    7 1     
   12    6   22 1     
   13    6   23 1     
   14    7    8 1     
   15    7   16 1     
   16    8    9 2     
   17    8   24 1     
   18    9   10 1     
   19    9   25 1     
   20   10   11 ar    
   21   10   16 ar    
   22   11   12 ar    
   23   11   26 1     
   24   12   13 1     
   25   12   14 ar    
   26   13   29 1     
   27   13   30 1     
   28   14   15 ar    
   29   14   27 1     
   30   15   16 ar    
   31   15   28 1     
@<TRIPOS>SUBSTRUCTURE
      1 ****           1
@<TRIPOS>SET
DONOR_HYDROGENS      STATIC     ATOMS    <user>   **** ""
2 29 30
ATOM$RED        STATIC     ATOMS    COLORGROUP SYSTEM
2 29 30
@<TRIPOS>COMMENT
> <Gold.Version>
2022.2.0

> <Gold.Id.Protein>
1qkm|1qkm_protein|mol2

> <Gold.Protein.RotatedTorsions>
[  496  491  490  487 ] final  160.67 input  -89.99 | X-H torsion

> <Gold.Protein.ActiveResidues>
 MET295  LEU298  THR299  LEU301  ALA302  GLU305  TRP335  MET336  LEU339  MET340 
 GLY342  LEU343  ARG346  PHE356  ILE373  ILE376  PHE377  LEU380  LYS471  GLY472 
 MET473  HIS475  LEU476  LEU477  ASN478  MET479  VAL484  VAL487 

> <Gold.Protein.RotatedAtoms>
   37.2985   33.2129   41.0623 H   0  0  0  0  0  0  0  0  0  0  0  0  # atno 496  bound_to 491 

> <Gold.Score>
     Score     S(PLP)   S(hbond)     S(cho)   S(metal)  DE(clash)   DE(tors)     intcor
     56.72     -54.53       1.00       0.00       0.00       0.00       0.41       0.00

> <Gold.PLP.Fitness>
56.7205

> <Gold.PLP.PLP>
-54.5311

> <Gold.PLP.part.hbond>
-1.0000

> <Gold.PLP.part.metal>
0.0000

> <Gold.PLP.part.buried>
-4.5985

> <Gold.PLP.part.nonpolar>
-49.7873

> <Gold.PLP.part.repulsive>
0.1690

> <Gold.PLP.ligand.clash>
0.0000

> <Gold.PLP.ligand.torsion>
0.4057

> <Gold.PLP.Chemscore.Hbond>
1.0000

> <Gold.PLP.Chemscore.CHOScore>
0.0000

> <Gold.PLP.Chemscore.Metal>
0.0000

> <Gold.Chemscore.Hbonds>
donor molecule, donor type, donor heavy atom, donor atom, acceptor molecule, acceptor atom, score
      L1  H    13    29       P1   582  1.00

> <Gold.PLP.Chemscore.Internal.Correction>
0.0007

