#       Name:                EN300-61143_i001
#       Creating user name   aseyller
#       Creation time:       Sat Apr 22 07:36:17 2023


#       File generated by GOLD software.
#

@<TRIPOS>MOLECULE
EN300-61143_i001|amine_3|mol2|4017|dock7
    30    31     1
SMALL
USER_CHARGES


@<TRIPOS>ATOM
      1 C1          31.4954  32.8111  38.2044 C.3            1 <1>                0.0000
      2 C2          32.1049  34.0780  37.6009 C.3            1 <1>                0.0000
      3 O3          31.7494  35.2234  38.4193 O.3            1 <1>                0.0000
      4 C4          31.1955  36.2726  37.7914 C.2            1 <1>                0.0000
      5 O5          31.1258  36.2869  36.5853 O.2            1 <1>                0.0000
      6 C6          30.6605  37.4326  38.5908 C.3            1 <1>                0.0000
      7 N7          29.2053  37.5023  38.4367 N.pl3          1 <1>                0.0000
      8 C8          28.5537  38.0213  37.3517 C.2            1 <1>                0.0000
      9 C9          27.2260  37.9321  37.5292 C.2            1 <1>                0.0000
     10 C10         27.0090  37.3044  38.8350 C.ar           1 <1>                0.0000
     11 C11         25.8706  36.9510  39.5629 C.ar           1 <1>                0.0000
     12 C12         26.0107  36.3558  40.8024 C.ar           1 <1>                0.0000
     13 N13         24.8740  35.9991  41.5372 N.pl3          1 <1>                0.0000
     14 C14         27.2802  36.1091  41.3231 C.ar           1 <1>                0.0000
     15 C15         28.4080  36.4543  40.6132 C.ar           1 <1>                0.0000
     16 C16         28.2876  37.0488  39.3614 C.ar           1 <1>                0.0000
     17 H17         31.8792  32.6689  39.2147 H              1 <1>                0.0000
     18 H18         30.4104  32.9105  38.2385 H              1 <1>                0.0000
     19 H19         31.7623  31.9512  37.5900 H              1 <1>                0.0000
     20 H20         33.1899  33.9785  37.5667 H              1 <1>                0.0000
     21 H21         31.7211  34.2201  36.5906 H              1 <1>                0.0000
     22 H22         30.9082  37.2936  39.6433 H              1 <1>                0.0000
     23 H23         31.1087  38.3590  38.2314 H              1 <1>                0.0000
     24 H24         29.0359  38.4410  36.4812 H              1 <1>                0.0000
     25 H25         26.4624  38.2611  36.8400 H              1 <1>                0.0000
     26 H26         24.8870  37.1420  39.1599 H              1 <1>                0.0000
     27 H27         27.3798  35.6432  42.2924 H              1 <1>                0.0000
     28 H28         29.3866  36.2589  41.0262 H              1 <1>                0.0000
     29 H29         23.9900  36.1698  41.1763 H              1 <1>                0.0000
     30 H30         24.9704  35.5813  42.4072 H              1 <1>                0.0000
@<TRIPOS>BOND
    1    1    2 1     
    2    1   17 1     
    3    1   18 1     
    4    1   19 1     
    5    2    3 1     
    6    2   20 1     
    7    2   21 1     
    8    3    4 1     
    9    4    5 2     
   10    4    6 1     
   11    6    7 1     
   12    6   22 1     
   13    6   23 1     
   14    7    8 1     
   15    7   16 1     
   16    8    9 2     
   17    8   24 1     
   18    9   10 1     
   19    9   25 1     
   20   10   11 ar    
   21   10   16 ar    
   22   11   12 ar    
   23   11   26 1     
   24   12   13 1     
   25   12   14 ar    
   26   13   29 1     
   27   13   30 1     
   28   14   15 ar    
   29   14   27 1     
   30   15   16 ar    
   31   15   28 1     
@<TRIPOS>SUBSTRUCTURE
      1 ****           1
@<TRIPOS>SET
DONOR_HYDROGENS      STATIC     ATOMS    <user>   **** ""
2 29 30
ATOM$RED        STATIC     ATOMS    COLORGROUP SYSTEM
2 29 30
@<TRIPOS>COMMENT
> <Gold.Version>
2022.2.0

> <Gold.Id.Protein>
1qkm|1qkm_protein|mol2

> <Gold.Protein.RotatedTorsions>
[  496  491  490  487 ] final -154.31 input  -89.99 | X-H torsion

> <Gold.Protein.ActiveResidues>
 MET295  LEU298  THR299  LEU301  ALA302  GLU305  TRP335  MET336  LEU339  MET340 
 GLY342  LEU343  ARG346  PHE356  ILE373  ILE376  PHE377  LEU380  LYS471  GLY472 
 MET473  HIS475  LEU476  LEU477  ASN478  MET479  VAL484  VAL487 

> <Gold.Protein.RotatedAtoms>
   37.2519   33.8525   40.7302 H   0  0  0  0  0  0  0  0  0  0  0  0  # atno 496  bound_to 491 

> <Gold.Score>
     Score     S(PLP)   S(hbond)     S(cho)   S(metal)  DE(clash)   DE(tors)     intcor
     58.98     -54.36       2.00       0.00       0.00       0.00       0.70       0.02

> <Gold.PLP.Fitness>
58.9779

> <Gold.PLP.PLP>
-54.3584

> <Gold.PLP.part.hbond>
-2.0000

> <Gold.PLP.part.metal>
0.0000

> <Gold.PLP.part.buried>
-3.9027

> <Gold.PLP.part.nonpolar>
-49.5160

> <Gold.PLP.part.repulsive>
0.2507

> <Gold.PLP.ligand.clash>
0.0000

> <Gold.PLP.ligand.torsion>
0.7027

> <Gold.PLP.Chemscore.Hbond>
2.0000

> <Gold.PLP.Chemscore.CHOScore>
0.0000

> <Gold.PLP.Chemscore.Metal>
0.0000

> <Gold.Chemscore.Hbonds>
donor molecule, donor type, donor heavy atom, donor atom, acceptor molecule, acceptor atom, score
      L1  H    13    29       P1  1131  1.00
      L1  H    13    30       P1   582  1.00

> <Gold.PLP.Chemscore.Internal.Correction>
0.0249

