#       Name:                EN300-61143_i001
#       Creating user name   aseyller
#       Creation time:       Sat Apr 22 07:36:18 2023


#       File generated by GOLD software.
#

@<TRIPOS>MOLECULE
EN300-61143_i001|amine_3|mol2|4017|dock8
    30    31     1
SMALL
USER_CHARGES


@<TRIPOS>ATOM
      1 C1          25.4956  37.4557  39.2583 C.3            1 <1>                0.0000
      2 C2          26.4618  36.7554  40.2159 C.3            1 <1>                0.0000
      3 O3          27.6209  36.2872  39.4773 O.3            1 <1>                0.0000
      4 C4          28.7905  36.2551  40.1352 C.2            1 <1>                0.0000
      5 O5          28.8382  36.5775  41.2987 O.2            1 <1>                0.0000
      6 C6          30.0440  35.8171  39.4227 C.3            1 <1>                0.0000
      7 N7          30.3148  36.7268  38.3068 N.pl3          1 <1>                0.0000
      8 C8          29.5665  37.8274  37.9905 C.2            1 <1>                0.0000
      9 C9          30.0859  38.4403  36.9149 C.2            1 <1>                0.0000
     10 C10         31.2635  37.6692  36.5086 C.ar           1 <1>                0.0000
     11 C11         32.2018  37.8021  35.4827 C.ar           1 <1>                0.0000
     12 C12         33.2242  36.8790  35.3693 C.ar           1 <1>                0.0000
     13 N13         34.1680  37.0061  34.3435 N.pl3          1 <1>                0.0000
     14 C14         33.3189  35.8219  36.2733 C.ar           1 <1>                0.0000
     15 C15         32.3985  35.6825  37.2875 C.ar           1 <1>                0.0000
     16 C16         31.3658  36.6048  37.4217 C.ar           1 <1>                0.0000
     17 H17         25.9968  38.3044  38.7927 H              1 <1>                0.0000
     18 H18         25.1763  36.7546  38.4871 H              1 <1>                0.0000
     19 H19         24.6254  37.8071  39.8127 H              1 <1>                0.0000
     20 H20         26.7811  37.4565  40.9870 H              1 <1>                0.0000
     21 H21         25.9605  35.9068  40.6814 H              1 <1>                0.0000
     22 H22         30.8829  35.8358  40.1186 H              1 <1>                0.0000
     23 H23         29.9105  34.8045  39.0419 H              1 <1>                0.0000
     24 H24         28.6880  38.1547  38.5264 H              1 <1>                0.0000
     25 H25         29.7071  39.3327  36.4389 H              1 <1>                0.0000
     26 H26         32.1288  38.6207  34.7821 H              1 <1>                0.0000
     27 H27         34.1215  35.1057  36.1770 H              1 <1>                0.0000
     28 H28         32.4812  34.8597  37.9821 H              1 <1>                0.0000
     29 H29         34.1037  37.7410  33.7137 H              1 <1>                0.0000
     30 H30         34.8862  36.3593  34.2623 H              1 <1>                0.0000
@<TRIPOS>BOND
    1    1    2 1     
    2    1   17 1     
    3    1   18 1     
    4    1   19 1     
    5    2    3 1     
    6    2   20 1     
    7    2   21 1     
    8    3    4 1     
    9    4    5 2     
   10    4    6 1     
   11    6    7 1     
   12    6   22 1     
   13    6   23 1     
   14    7    8 1     
   15    7   16 1     
   16    8    9 2     
   17    8   24 1     
   18    9   10 1     
   19    9   25 1     
   20   10   11 ar    
   21   10   16 ar    
   22   11   12 ar    
   23   11   26 1     
   24   12   13 1     
   25   12   14 ar    
   26   13   29 1     
   27   13   30 1     
   28   14   15 ar    
   29   14   27 1     
   30   15   16 ar    
   31   15   28 1     
@<TRIPOS>SUBSTRUCTURE
      1 ****           1
@<TRIPOS>SET
DONOR_HYDROGENS      STATIC     ATOMS    <user>   **** ""
2 29 30
ATOM$RED        STATIC     ATOMS    COLORGROUP SYSTEM
2 29 30
@<TRIPOS>COMMENT
> <Gold.Version>
2022.2.0

> <Gold.Id.Protein>
1qkm|1qkm_protein|mol2

> <Gold.Protein.RotatedTorsions>
[  496  491  490  487 ] final -159.82 input  -89.99 | X-H torsion

> <Gold.Protein.ActiveResidues>
 MET295  LEU298  THR299  LEU301  ALA302  GLU305  TRP335  MET336  LEU339  MET340 
 GLY342  LEU343  ARG346  PHE356  ILE373  ILE376  PHE377  LEU380  LYS471  GLY472 
 MET473  HIS475  LEU476  LEU477  ASN478  MET479  VAL484  VAL487 

> <Gold.Protein.RotatedAtoms>
   37.2745   33.7661   40.7464 H   0  0  0  0  0  0  0  0  0  0  0  0  # atno 496  bound_to 491 

> <Gold.Score>
     Score     S(PLP)   S(hbond)     S(cho)   S(metal)  DE(clash)   DE(tors)     intcor
     54.54     -53.27       0.56       0.00       0.00       0.00       0.21       0.00

> <Gold.PLP.Fitness>
54.5391

> <Gold.PLP.PLP>
-53.2741

> <Gold.PLP.part.hbond>
-0.9065

> <Gold.PLP.part.metal>
0.0000

> <Gold.PLP.part.buried>
-5.0012

> <Gold.PLP.part.nonpolar>
-48.1984

> <Gold.PLP.part.repulsive>
0.2381

> <Gold.PLP.ligand.clash>
0.0000

> <Gold.PLP.ligand.torsion>
0.2093

> <Gold.PLP.Chemscore.Hbond>
0.5600

> <Gold.PLP.Chemscore.CHOScore>
0.0000

> <Gold.PLP.Chemscore.Metal>
0.0000

> <Gold.Chemscore.Hbonds>
donor molecule, donor type, donor heavy atom, donor atom, acceptor molecule, acceptor atom, score
      L1  H    13    29       P1  3229  0.56

> <Gold.PLP.Chemscore.Internal.Correction>
0.0036

