#       Name:                EN300-61143_i001
#       Creating user name   aseyller
#       Creation time:       Sat Apr 22 07:36:19 2023


#       File generated by GOLD software.
#

@<TRIPOS>MOLECULE
EN300-61143_i001|amine_3|mol2|4017|dock10
    30    31     1
SMALL
USER_CHARGES


@<TRIPOS>ATOM
      1 C1          25.7661  37.5934  39.1170 C.3            1 <1>                0.0000
      2 C2          26.2751  36.1887  38.7872 C.3            1 <1>                0.0000
      3 O3          27.5397  35.9610  39.4635 O.3            1 <1>                0.0000
      4 C4          28.5926  36.6810  39.0455 C.2            1 <1>                0.0000
      5 O5          28.4643  37.4679  38.1376 O.2            1 <1>                0.0000
      6 C6          29.9347  36.5080  39.7086 C.3            1 <1>                0.0000
      7 N7          30.8610  35.8623  38.7751 N.pl3          1 <1>                0.0000
      8 C8          31.4521  34.6442  38.9706 C.2            1 <1>                0.0000
      9 C9          32.2420  34.3460  37.9269 C.2            1 <1>                0.0000
     10 C10         32.1495  35.4646  36.9853 C.ar           1 <1>                0.0000
     11 C11         32.7264  35.7352  35.7425 C.ar           1 <1>                0.0000
     12 C12         32.4243  36.9169  35.0926 C.ar           1 <1>                0.0000
     13 N13         32.9990  37.1945  33.8470 N.pl3          1 <1>                0.0000
     14 C14         31.5488  37.8334  35.6735 C.ar           1 <1>                0.0000
     15 C15         30.9756  37.5756  36.8983 C.ar           1 <1>                0.0000
     16 C16         31.2627  36.3891  37.5652 C.ar           1 <1>                0.0000
     17 H17         25.6238  37.6847  40.1939 H              1 <1>                0.0000
     18 H18         26.4950  38.3318  38.7829 H              1 <1>                0.0000
     19 H19         24.8168  37.7644  38.6094 H              1 <1>                0.0000
     20 H20         25.5462  35.4504  39.1213 H              1 <1>                0.0000
     21 H21         26.4174  36.0975  37.7104 H              1 <1>                0.0000
     22 H22         30.3277  37.4840  39.9936 H              1 <1>                0.0000
     23 H23         29.8234  35.8874  40.5977 H              1 <1>                0.0000
     24 H24         31.3054  34.0157  39.8365 H              1 <1>                0.0000
     25 H25         32.8339  33.4510  37.8045 H              1 <1>                0.0000
     26 H26         33.4047  35.0255  35.2923 H              1 <1>                0.0000
     27 H27         31.3184  38.7541  35.1581 H              1 <1>                0.0000
     28 H28         30.2991  38.2927  37.3392 H              1 <1>                0.0000
     29 H29         33.6082  36.5579  33.4413 H              1 <1>                0.0000
     30 H30         32.7882  38.0233  33.3894 H              1 <1>                0.0000
@<TRIPOS>BOND
    1    1    2 1     
    2    1   17 1     
    3    1   18 1     
    4    1   19 1     
    5    2    3 1     
    6    2   20 1     
    7    2   21 1     
    8    3    4 1     
    9    4    5 2     
   10    4    6 1     
   11    6    7 1     
   12    6   22 1     
   13    6   23 1     
   14    7    8 1     
   15    7   16 1     
   16    8    9 2     
   17    8   24 1     
   18    9   10 1     
   19    9   25 1     
   20   10   11 ar    
   21   10   16 ar    
   22   11   12 ar    
   23   11   26 1     
   24   12   13 1     
   25   12   14 ar    
   26   13   29 1     
   27   13   30 1     
   28   14   15 ar    
   29   14   27 1     
   30   15   16 ar    
   31   15   28 1     
@<TRIPOS>SUBSTRUCTURE
      1 ****           1
@<TRIPOS>SET
DONOR_HYDROGENS      STATIC     ATOMS    <user>   **** ""
2 29 30
ATOM$RED        STATIC     ATOMS    COLORGROUP SYSTEM
2 29 30
@<TRIPOS>COMMENT
> <Gold.Version>
2022.2.0

> <Gold.Id.Protein>
1qkm|1qkm_protein|mol2

> <Gold.Protein.RotatedTorsions>
[  496  491  490  487 ] final -123.11 input  -89.99 | X-H torsion

> <Gold.Protein.ActiveResidues>
 MET295  LEU298  THR299  LEU301  ALA302  GLU305  TRP335  MET336  LEU339  MET340 
 GLY342  LEU343  ARG346  PHE356  ILE373  ILE376  PHE377  LEU380  LYS471  GLY472 
 MET473  HIS475  LEU476  LEU477  ASN478  MET479  VAL484  VAL487 

> <Gold.Protein.RotatedAtoms>
   37.0515   34.3154   40.7821 H   0  0  0  0  0  0  0  0  0  0  0  0  # atno 496  bound_to 491 

> <Gold.Score>
     Score     S(PLP)   S(hbond)     S(cho)   S(metal)  DE(clash)   DE(tors)     intcor
     55.58     -53.65       0.00       0.71       0.00       0.00       0.10       0.00

> <Gold.PLP.Fitness>
55.5821

> <Gold.PLP.PLP>
-53.6504

> <Gold.PLP.part.hbond>
-2.0000

> <Gold.PLP.part.metal>
0.0000

> <Gold.PLP.part.buried>
-3.3019

> <Gold.PLP.part.nonpolar>
-48.9886

> <Gold.PLP.part.repulsive>
0.1019

> <Gold.PLP.ligand.clash>
0.0000

> <Gold.PLP.ligand.torsion>
0.0998

> <Gold.PLP.Chemscore.Hbond>
0.0000

> <Gold.PLP.Chemscore.CHOScore>
0.7092

> <Gold.PLP.Chemscore.Metal>
0.0000

> <Gold.Chemscore.Hbonds>
donor molecule, donor type, donor heavy atom, donor atom, acceptor molecule, acceptor atom, score
      L1  C     8    24       P1   470  0.71

> <Gold.PLP.Chemscore.Internal.Correction>
0.0036

