#       Name:                EN300-61143_i001
#       Creating user name   aseyller
#       Creation time:       Sat Apr 22 07:36:19 2023


#       File generated by GOLD software.
#

@<TRIPOS>MOLECULE
EN300-61143_i001|amine_3|mol2|4017|dock11
    30    31     1
SMALL
USER_CHARGES


@<TRIPOS>ATOM
      1 C1          32.8908  37.2559  34.6615 C.3            1 <1>                0.0000
      2 C2          31.4547  37.7338  34.4381 C.3            1 <1>                0.0000
      3 O3          30.6402  37.3714  35.5841 O.3            1 <1>                0.0000
      4 C4          30.9999  37.8807  36.7728 C.2            1 <1>                0.0000
      5 O5          31.7732  38.8077  36.8239 O.2            1 <1>                0.0000
      6 C6          30.4393  37.2964  38.0437 C.3            1 <1>                0.0000
      7 N7          29.0020  37.5707  38.1150 N.pl3          1 <1>                0.0000
      8 C8          28.3086  38.3628  37.2415 C.2            1 <1>                0.0000
      9 C9          27.0128  38.4035  37.5901 C.2            1 <1>                0.0000
     10 C10         26.8636  37.5691  38.7850 C.ar           1 <1>                0.0000
     11 C11         25.7807  37.2243  39.5968 C.ar           1 <1>                0.0000
     12 C12         25.9789  36.3907  40.6813 C.ar           1 <1>                0.0000
     13 N13         24.8981  36.0412  41.4991 N.pl3          1 <1>                0.0000
     14 C14         27.2518  35.8965  40.9632 C.ar           1 <1>                0.0000
     15 C15         28.3252  36.2311  40.1690 C.ar           1 <1>                0.0000
     16 C16         28.1446  37.0640  39.0696 C.ar           1 <1>                0.0000
     17 H17         33.2950  37.7265  35.5578 H              1 <1>                0.0000
     18 H18         32.8985  36.1729  34.7848 H              1 <1>                0.0000
     19 H19         33.5024  37.5279  33.8012 H              1 <1>                0.0000
     20 H20         31.4472  38.8168  34.3147 H              1 <1>                0.0000
     21 H21         31.0506  37.2632  33.5417 H              1 <1>                0.0000
     22 H22         30.6045  36.2189  38.0520 H              1 <1>                0.0000
     23 H23         30.9382  37.7470  38.9018 H              1 <1>                0.0000
     24 H24         28.7398  38.8792  36.3966 H              1 <1>                0.0000
     25 H25         26.2288  38.9485  37.0854 H              1 <1>                0.0000
     26 H26         24.7945  37.6069  39.3788 H              1 <1>                0.0000
     27 H27         27.3970  35.2455  41.8126 H              1 <1>                0.0000
     28 H28         29.3069  35.8429  40.3968 H              1 <1>                0.0000
     29 H29         24.0119  36.3839  41.3042 H              1 <1>                0.0000
     30 H30         25.0354  35.4563  42.2605 H              1 <1>                0.0000
@<TRIPOS>BOND
    1    1    2 1     
    2    1   17 1     
    3    1   18 1     
    4    1   19 1     
    5    2    3 1     
    6    2   20 1     
    7    2   21 1     
    8    3    4 1     
    9    4    5 2     
   10    4    6 1     
   11    6    7 1     
   12    6   22 1     
   13    6   23 1     
   14    7    8 1     
   15    7   16 1     
   16    8    9 2     
   17    8   24 1     
   18    9   10 1     
   19    9   25 1     
   20   10   11 ar    
   21   10   16 ar    
   22   11   12 ar    
   23   11   26 1     
   24   12   13 1     
   25   12   14 ar    
   26   13   29 1     
   27   13   30 1     
   28   14   15 ar    
   29   14   27 1     
   30   15   16 ar    
   31   15   28 1     
@<TRIPOS>SUBSTRUCTURE
      1 ****           1
@<TRIPOS>SET
DONOR_HYDROGENS      STATIC     ATOMS    <user>   **** ""
2 29 30
ATOM$RED        STATIC     ATOMS    COLORGROUP SYSTEM
2 29 30
@<TRIPOS>COMMENT
> <Gold.Version>
2022.2.0

> <Gold.Id.Protein>
1qkm|1qkm_protein|mol2

> <Gold.Protein.RotatedTorsions>
[  496  491  490  487 ] final   63.32 input  -89.99 | X-H torsion

> <Gold.Protein.ActiveResidues>
 MET295  LEU298  THR299  LEU301  ALA302  GLU305  TRP335  MET336  LEU339  MET340 
 GLY342  LEU343  ARG346  PHE356  ILE373  ILE376  PHE377  LEU380  LYS471  GLY472 
 MET473  HIS475  LEU476  LEU477  ASN478  MET479  VAL484  VAL487 

> <Gold.Protein.RotatedAtoms>
   36.5794   33.2776   42.2811 H   0  0  0  0  0  0  0  0  0  0  0  0  # atno 496  bound_to 491 

> <Gold.Score>
     Score     S(PLP)   S(hbond)     S(cho)   S(metal)  DE(clash)   DE(tors)     intcor
     56.55     -52.86       1.43       0.00       0.00       0.00       0.29       0.00

> <Gold.PLP.Fitness>
56.5509

> <Gold.PLP.PLP>
-52.8551

> <Gold.PLP.part.hbond>
-2.0000

> <Gold.PLP.part.metal>
0.0000

> <Gold.PLP.part.buried>
-1.9952

> <Gold.PLP.part.nonpolar>
-49.2647

> <Gold.PLP.part.repulsive>
0.1993

> <Gold.PLP.ligand.clash>
0.0000

> <Gold.PLP.ligand.torsion>
0.2935

> <Gold.PLP.Chemscore.Hbond>
1.4264

> <Gold.PLP.Chemscore.CHOScore>
0.0000

> <Gold.PLP.Chemscore.Metal>
0.0000

> <Gold.Chemscore.Hbonds>
donor molecule, donor type, donor heavy atom, donor atom, acceptor molecule, acceptor atom, score
      L1  H    13    29       P1  1131  0.43
      L1  H    13    30       P1   582  1.00

> <Gold.PLP.Chemscore.Internal.Correction>
0.0036

