#       Name:                plp ligand
#       Creating user name   aseyller
#       Creation time:       Sat Apr 22 07:36:13 2023


#       File generated by GOLD software.
#

@<TRIPOS>MOLECULE
plp ligand
    30    31     1
SMALL
USER_CHARGES


@<TRIPOS>ATOM
      1 C1           5.3463  -1.0426  -0.1478 NONPOLAR       1 <1>                0.0000
      2 C2           3.9659  -0.6689  -0.6916 NONPOLAR       1 <1>                0.0000
      3 O3           3.1714  -0.0773   0.3700 ACCEPTOR       1 <1>                0.0000
      4 C4           1.9248   0.3085   0.0555 NONPOLAR       1 <1>                0.0000
      5 O5           1.5112   0.1569  -1.0696 ACCEPTOR       1 <1>                0.0000
      6 C6           1.0411   0.9308   1.1056 NONPOLAR       1 <1>                0.0000
      7 N7          -0.2588   1.2616   0.5165 NONPOLAR       1 <1>                0.0000
      8 C8          -0.6037   2.4843   0.0092 NONPOLAR       1 <1>                0.0000
      9 C9          -1.8640   2.4496  -0.4520 NONPOLAR       1 <1>                0.0000
     10 C10         -2.3681   1.0935  -0.2213 NONPOLAR       1 <1>                0.0000
     11 C11         -3.5830   0.4546  -0.4791 NONPOLAR       1 <1>                0.0000
     12 C12         -3.7437  -0.8728  -0.1292 NONPOLAR       1 <1>                0.0000
     13 N13         -4.9586  -1.5192  -0.3846 DONOR          1 <1>                0.0000
     14 C14         -2.6997  -1.5702   0.4770 NONPOLAR       1 <1>                0.0000
     15 C15         -1.4988  -0.9488   0.7354 NONPOLAR       1 <1>                0.0000
     16 C16         -1.3158   0.3850   0.3852 NONPOLAR       1 <1>                0.0000
     17 H17          5.8451  -0.1473   0.2235                1 <1>                0.0000
     18 H18          5.2346  -1.7599   0.6653                1 <1>                0.0000
     19 H19          5.9428  -1.4867  -0.9447                1 <1>                0.0000
     20 H20          4.0777   0.0484  -1.5047                1 <1>                0.0000
     21 H21          3.4672  -1.5642  -1.0629                1 <1>                0.0000
     22 H22          0.8998   0.2265   1.9255                1 <1>                0.0000
     23 H23          1.5104   1.8391   1.4837                1 <1>                0.0000
     24 H24          0.0421   3.3495  -0.0163                1 <1>                0.0000
     25 H25         -2.4042   3.2668  -0.9067                1 <1>                0.0000
     26 H26         -4.3920   0.9945  -0.9486                1 <1>                0.0000
     27 H27         -2.8344  -2.6073   0.7466                1 <1>                0.0000
     28 H28         -0.6969  -1.4984   1.2057                1 <1>                0.0000
     29 H29         -5.6859  -1.0356  -0.8064                1 <1>                0.0000
     30 H30         -5.0732  -2.4507  -0.1397                1 <1>                0.0000
@<TRIPOS>BOND
    1    1    2 1     
    2    1   17 1     
    3    1   18 1     
    4    1   19 1     
    5    2    3 1     
    6    2   20 1     
    7    2   21 1     
    8    3    4 1     
    9    4    5 2     
   10    4    6 1     
   11    6    7 1     
   12    6   22 1     
   13    6   23 1     
   14    7    8 1     
   15    7   16 1     
   16    8    9 2     
   17    8   24 1     
   18    9   10 1     
   19    9   25 1     
   20   10   11 ar    
   21   10   16 ar    
   22   11   12 ar    
   23   11   26 1     
   24   12   13 1     
   25   12   14 ar    
   26   13   29 1     
   27   13   30 1     
   28   14   15 ar    
   29   14   27 1     
   30   15   16 ar    
   31   15   28 1     
@<TRIPOS>SUBSTRUCTURE
      1 ****           1
@<TRIPOS>SET
DONOR_HYDROGENS      STATIC     ATOMS    <user>   **** ""
2 29 30
ATOM$RED        STATIC     ATOMS    COLORGROUP SYSTEM
2 29 30
