#       Name:                EN300-41936_i001
#       Creating user name   aseyller
#       Creation time:       Fri Apr 21 17:14:49 2023


#       File generated by GOLD software.
#

@<TRIPOS>MOLECULE
EN300-41936_i001|benzaldehydes|mol2|210|dock16
    29    29     1
SMALL
USER_CHARGES


@<TRIPOS>ATOM
      1 C1          25.6465  37.3132  39.0973 C.3            1 <1>                0.0000
      2 C2          27.0759  37.3189  38.6201 C.2            1 <1>                0.0000
      3 N3          27.5573  38.0449  37.6502 N.2            1 <1>                0.0000
      4 N4          28.9217  37.7695  37.5088 N.pl3          1 <1>                0.0000
      5 C5          29.2693  36.8503  38.4216 C.2            1 <1>                0.0000
      6 C6          30.6441  36.2663  38.6215 C.3            1 <1>                0.0000
      7 C7          28.1334  36.5415  39.1504 C.2            1 <1>                0.0000
      8 C8          28.0408  35.5823  40.2562 C.2            1 <1>                0.0000
      9 O9          27.0189  35.5012  40.9048 O.2            1 <1>                0.0000
     10 C10         29.8204  38.3822  36.5274 C.3            1 <1>                0.0000
     11 C11         29.1009  39.5376  35.8286 C.3            1 <1>                0.0000
     12 C12         31.0667  38.9131  37.2386 C.3            1 <1>                0.0000
     13 C13         30.2322  37.3359  35.4898 C.3            1 <1>                0.0000
     14 H14         25.0815  36.5635  38.5434 H              1 <1>                0.0000
     15 H15         25.6194  37.0761  40.1608 H              1 <1>                0.0000
     16 H16         25.2046  38.2959  38.9328 H              1 <1>                0.0000
     17 H17         31.1629  36.8182  39.4053 H              1 <1>                0.0000
     18 H18         30.5554  35.2195  38.9119 H              1 <1>                0.0000
     19 H19         31.2083  36.3389  37.6917 H              1 <1>                0.0000
     20 H20         28.8825  34.9484  40.4930 H              1 <1>                0.0000
     21 H21         28.8076  40.2831  36.5677 H              1 <1>                0.0000
     22 H22         29.7695  39.9935  35.0984 H              1 <1>                0.0000
     23 H23         28.2131  39.1594  35.3219 H              1 <1>                0.0000
     24 H24         31.5792  38.0900  37.7364 H              1 <1>                0.0000
     25 H25         31.7353  39.3690  36.5085 H              1 <1>                0.0000
     26 H26         30.7733  39.6586  37.9778 H              1 <1>                0.0000
     27 H27         29.3554  37.0202  34.9243 H              1 <1>                0.0000
     28 H28         30.9668  37.7676  34.8101 H              1 <1>                0.0000
     29 H29         30.6677  36.4742  35.9959 H              1 <1>                0.0000
@<TRIPOS>BOND
    1    1    2 1     
    2    1   14 1     
    3    1   15 1     
    4    1   16 1     
    5    2    3 2     
    6    2    7 1     
    7    3    4 1     
    8    4    5 1     
    9    4   10 1     
   10    5    6 1     
   11    5    7 2     
   12    6   17 1     
   13    6   18 1     
   14    6   19 1     
   15    7    8 1     
   16    8    9 2     
   17    8   20 1     
   18   10   11 1     
   19   10   12 1     
   20   10   13 1     
   21   11   21 1     
   22   11   22 1     
   23   11   23 1     
   24   12   24 1     
   25   12   25 1     
   26   12   26 1     
   27   13   27 1     
   28   13   28 1     
   29   13   29 1     
@<TRIPOS>SUBSTRUCTURE
      1 ****           1
@<TRIPOS>COMMENT
> <Gold.Version>
2022.2.0

> <Gold.Id.Protein>
1qkm|1qkm_protein|mol2

> <Gold.Protein.RotatedTorsions>
[  496  491  490  487 ] final  126.18 input  -89.99 | X-H torsion

> <Gold.Protein.ActiveResidues>
 MET295  LEU298  THR299  LEU301  ALA302  GLU305  TRP335  MET336  LEU339  MET340 
 GLY342  LEU343  ARG346  PHE356  ILE373  ILE376  PHE377  LEU380  LYS471  GLY472 
 MET473  HIS475  LEU476  LEU477  ASN478  MET479  VAL484  VAL487 

> <Gold.Protein.RotatedAtoms>
   37.1265   32.9573   41.5292 H   0  0  0  0  0  0  0  0  0  0  0  0  # atno 496  bound_to 491 

> <Gold.Score>
     Score     S(PLP)   S(hbond)     S(cho)   S(metal)  DE(clash)   DE(tors)     intcor
     37.12     -37.63       0.00       0.00       0.00       0.00       0.25       0.00

> <Gold.PLP.Fitness>
37.1177

> <Gold.PLP.PLP>
-37.6271

> <Gold.PLP.part.hbond>
0.0000

> <Gold.PLP.part.metal>
0.0000

> <Gold.PLP.part.buried>
-2.8766

> <Gold.PLP.part.nonpolar>
-35.2913

> <Gold.PLP.part.repulsive>
0.1216

> <Gold.PLP.ligand.clash>
0.0000

> <Gold.PLP.ligand.torsion>
0.2547

> <Gold.PLP.Chemscore.Hbond>
0.0000

> <Gold.PLP.Chemscore.CHOScore>
0.0000

> <Gold.PLP.Chemscore.Metal>
0.0000

> <Gold.PLP.Chemscore.Internal.Correction>
0.0000

