#       Name:                EN300-41936_i001
#       Creating user name   aseyller
#       Creation time:       Fri Apr 21 17:14:45 2023


#       File generated by GOLD software.
#

@<TRIPOS>MOLECULE
EN300-41936_i001|benzaldehydes|mol2|210|dock9
    29    29     1
SMALL
USER_CHARGES


@<TRIPOS>ATOM
      1 C1          31.7554  32.8798  38.1985 C.3            1 <1>                0.0000
      2 C2          31.0634  34.1803  38.5161 C.2            1 <1>                0.0000
      3 N3          30.0972  34.3443  39.3759 N.2            1 <1>                0.0000
      4 N4          29.7212  35.6919  39.3870 N.pl3          1 <1>                0.0000
      5 C5          30.4850  36.3563  38.5071 C.2            1 <1>                0.0000
      6 C6          30.4162  37.8300  38.1997 C.3            1 <1>                0.0000
      7 C7          31.3523  35.4395  37.9378 C.2            1 <1>                0.0000
      8 C8          32.3712  35.7185  36.9202 C.2            1 <1>                0.0000
      9 O9          32.6091  36.8636  36.5982 O.2            1 <1>                0.0000
     10 C10         28.6688  36.2790  40.2200 C.3            1 <1>                0.0000
     11 C11         27.9577  35.1709  40.9995 C.3            1 <1>                0.0000
     12 C12         29.2908  37.2744  41.2015 C.3            1 <1>                0.0000
     13 C13         27.6585  37.0048  39.3292 C.3            1 <1>                0.0000
     14 H14         31.2332  32.3801  37.3826 H              1 <1>                0.0000
     15 H15         32.7854  33.0790  37.9026 H              1 <1>                0.0000
     16 H16         31.7481  32.2395  39.0805 H              1 <1>                0.0000
     17 H17         31.1546  38.3613  38.8003 H              1 <1>                0.0000
     18 H18         30.6246  37.9906  37.1420 H              1 <1>                0.0000
     19 H19         29.4197  38.2040  38.4347 H              1 <1>                0.0000
     20 H20         32.9093  34.9044  36.4576 H              1 <1>                0.0000
     21 H21         28.6773  34.6539  41.6342 H              1 <1>                0.0000
     22 H22         27.1747  35.6078  41.6193 H              1 <1>                0.0000
     23 H23         27.5145  34.4619  40.3004 H              1 <1>                0.0000
     24 H24         29.7974  38.0638  40.6461 H              1 <1>                0.0000
     25 H25         28.5079  37.7112  41.8213 H              1 <1>                0.0000
     26 H26         30.0105  36.7573  41.8361 H              1 <1>                0.0000
     27 H27         27.1534  36.2817  38.6888 H              1 <1>                0.0000
     28 H28         26.9236  37.5134  39.9530 H              1 <1>                0.0000
     29 H29         28.1790  37.7364  38.7111 H              1 <1>                0.0000
@<TRIPOS>BOND
    1    1    2 1     
    2    1   14 1     
    3    1   15 1     
    4    1   16 1     
    5    2    3 2     
    6    2    7 1     
    7    3    4 1     
    8    4    5 1     
    9    4   10 1     
   10    5    6 1     
   11    5    7 2     
   12    6   17 1     
   13    6   18 1     
   14    6   19 1     
   15    7    8 1     
   16    8    9 2     
   17    8   20 1     
   18   10   11 1     
   19   10   12 1     
   20   10   13 1     
   21   11   21 1     
   22   11   22 1     
   23   11   23 1     
   24   12   24 1     
   25   12   25 1     
   26   12   26 1     
   27   13   27 1     
   28   13   28 1     
   29   13   29 1     
@<TRIPOS>SUBSTRUCTURE
      1 ****           1
@<TRIPOS>COMMENT
> <Gold.Version>
2022.2.0

> <Gold.Id.Protein>
1qkm|1qkm_protein|mol2

> <Gold.Protein.RotatedTorsions>
[  496  491  490  487 ] final   28.16 input  -89.99 | X-H torsion

> <Gold.Protein.ActiveResidues>
 MET295  LEU298  THR299  LEU301  ALA302  GLU305  TRP335  MET336  LEU339  MET340 
 GLY342  LEU343  ARG346  PHE356  ILE373  ILE376  PHE377  LEU380  LYS471  GLY472 
 MET473  HIS475  LEU476  LEU477  ASN478  MET479  VAL484  VAL487 

> <Gold.Protein.RotatedAtoms>
   36.3372   33.7842   42.3780 H   0  0  0  0  0  0  0  0  0  0  0  0  # atno 496  bound_to 491 

> <Gold.Score>
     Score     S(PLP)   S(hbond)     S(cho)   S(metal)  DE(clash)   DE(tors)     intcor
     38.80     -38.95       0.00       0.00       0.00       0.00       0.08       0.00

> <Gold.PLP.Fitness>
38.7954

> <Gold.PLP.PLP>
-38.9544

> <Gold.PLP.part.hbond>
0.0000

> <Gold.PLP.part.metal>
0.0000

> <Gold.PLP.part.buried>
-0.1062

> <Gold.PLP.part.nonpolar>
-39.1436

> <Gold.PLP.part.repulsive>
0.0911

> <Gold.PLP.ligand.clash>
0.0000

> <Gold.PLP.ligand.torsion>
0.0795

> <Gold.PLP.Chemscore.Hbond>
0.0000

> <Gold.PLP.Chemscore.CHOScore>
0.0000

> <Gold.PLP.Chemscore.Metal>
0.0000

> <Gold.PLP.Chemscore.Internal.Correction>
0.0000

