#       Name:                EN300-41936_i001
#       Creating user name   aseyller
#       Creation time:       Fri Apr 21 17:14:41 2023


#       File generated by GOLD software.
#

@<TRIPOS>MOLECULE
EN300-41936_i001
    29    29     1
SMALL
USER_CHARGES


@<TRIPOS>ATOM
      1 C1           2.9912   2.1103   0.0030 C.3            1 <1>                0.0000
      2 C2           1.8345   1.1443   0.0024 C.2            1 <1>                0.0000
      3 N3           0.5702   1.4624  -0.0000 N.2            1 <1>                0.0000
      4 N4          -0.1944   0.2907   0.0002 N.pl3          1 <1>                0.0000
      5 C5           0.6365  -0.7622   0.0029 C.2            1 <1>                0.0000
      6 C6           0.2362  -2.2150   0.0041 C.3            1 <1>                0.0000
      7 C7           1.9298  -0.2680  -0.0019 C.2            1 <1>                0.0000
      8 C8           3.1653  -1.0585  -0.0011 C.2            1 <1>                0.0000
      9 O9           4.2424  -0.5005  -0.0057 O.2            1 <1>                0.0000
     10 C10         -1.6579   0.2249  -0.0016 C.3            1 <1>                0.0000
     11 C11         -2.2316   1.6339  -0.1645 C.3            1 <1>                0.0000
     12 C12         -2.1275  -0.6543  -1.1624 C.3            1 <1>                0.0000
     13 C13         -2.1432  -0.3736   1.3202 C.3            1 <1>                0.0000
     14 H14          3.2687   2.3442   1.0308 H              1 <1>                0.0000
     15 H15          3.8412   1.6597  -0.5093 H              1 <1>                0.0000
     16 H16          2.7002   3.0258  -0.5120 H              1 <1>                0.0000
     17 H17          0.2304  -2.5912  -1.0189 H              1 <1>                0.0000
     18 H18          0.9487  -2.7877   0.5978 H              1 <1>                0.0000
     19 H19         -0.7601  -2.3170   0.4343 H              1 <1>                0.0000
     20 H20          3.1160  -2.1374   0.0034 H              1 <1>                0.0000
     21 H21         -1.8860   2.0603  -1.1062 H              1 <1>                0.0000
     22 H22         -3.3205   1.5849  -0.1659 H              1 <1>                0.0000
     23 H23         -1.8971   2.2602   0.6624 H              1 <1>                0.0000
     24 H24         -1.7188  -1.6581  -1.0463 H              1 <1>                0.0000
     25 H25         -3.2164  -0.7033  -1.1638 H              1 <1>                0.0000
     26 H26         -1.7818  -0.2279  -2.1041 H              1 <1>                0.0000
     27 H27         -1.8830   0.2964   2.1397 H              1 <1>                0.0000
     28 H28         -3.2250  -0.5021   1.2855 H              1 <1>                0.0000
     29 H29         -1.6672  -1.3416   1.4772 H              1 <1>                0.0000
@<TRIPOS>BOND
    1    1    2 1     
    2    1   14 1     
    3    1   15 1     
    4    1   16 1     
    5    2    3 2     
    6    2    7 1     
    7    3    4 1     
    8    4    5 1     
    9    4   10 1     
   10    5    6 1     
   11    5    7 2     
   12    6   17 1     
   13    6   18 1     
   14    6   19 1     
   15    7    8 1     
   16    8    9 2     
   17    8   20 1     
   18   10   11 1     
   19   10   12 1     
   20   10   13 1     
   21   11   21 1     
   22   11   22 1     
   23   11   23 1     
   24   12   24 1     
   25   12   25 1     
   26   12   26 1     
   27   13   27 1     
   28   13   28 1     
   29   13   29 1     
@<TRIPOS>SUBSTRUCTURE
      1 ****           1
