#       Name:                EN300-41936_i001
#       Creating user name   aseyller
#       Creation time:       Fri Apr 21 17:14:49 2023


#       File generated by GOLD software.
#

@<TRIPOS>MOLECULE
EN300-41936_i001|benzaldehydes|mol2|210|dock17
    29    29     1
SMALL
USER_CHARGES


@<TRIPOS>ATOM
      1 C1          28.1990  35.7023  40.6246 C.3            1 <1>                0.0000
      2 C2          28.4800  36.5288  39.3962 C.2            1 <1>                0.0000
      3 N3          29.6364  36.6601  38.8087 N.2            1 <1>                0.0000
      4 N4          29.4926  37.5060  37.7036 N.pl3          1 <1>                0.0000
      5 C5          28.2111  37.8940  37.6259 C.2            1 <1>                0.0000
      6 C6          27.6170  38.8086  36.5860 C.3            1 <1>                0.0000
      7 C7          27.5335  37.2942  38.6737 C.2            1 <1>                0.0000
      8 C8          26.1065  37.4337  38.9829 C.2            1 <1>                0.0000
      9 O9          25.6488  36.9179  39.9809 O.2            1 <1>                0.0000
     10 C10         30.5631  37.9022  36.7853 C.3            1 <1>                0.0000
     11 C11         30.2604  37.3625  35.3859 C.3            1 <1>                0.0000
     12 C12         30.6528  39.4287  36.7348 C.3            1 <1>                0.0000
     13 C13         31.8942  37.3291  37.2759 C.3            1 <1>                0.0000
     14 H14         28.3406  36.3149  41.5149 H              1 <1>                0.0000
     15 H15         27.1713  35.3407  40.5919 H              1 <1>                0.0000
     16 H16         28.8820  34.8534  40.6554 H              1 <1>                0.0000
     17 H17         27.1820  38.2126  35.7837 H              1 <1>                0.0000
     18 H18         26.8417  39.4234  37.0431 H              1 <1>                0.0000
     19 H19         28.3975  39.4513  36.1789 H              1 <1>                0.0000
     20 H20         25.4632  37.9957  38.3219 H              1 <1>                0.0000
     21 H21         29.3122  37.7708  35.0363 H              1 <1>                0.0000
     22 H22         31.0568  37.6574  34.7027 H              1 <1>                0.0000
     23 H23         30.1965  36.2751  35.4219 H              1 <1>                0.0000
     24 H24         30.8684  39.8132  37.7317 H              1 <1>                0.0000
     25 H25         31.4492  39.7236  36.0515 H              1 <1>                0.0000
     26 H26         29.7045  39.8370  36.3852 H              1 <1>                0.0000
     27 H27         31.8599  36.2406  37.2305 H              1 <1>                0.0000
     28 H28         32.7025  37.6939  36.6422 H              1 <1>                0.0000
     29 H29         32.0684  37.6446  38.3046 H              1 <1>                0.0000
@<TRIPOS>BOND
    1    1    2 1     
    2    1   14 1     
    3    1   15 1     
    4    1   16 1     
    5    2    3 2     
    6    2    7 1     
    7    3    4 1     
    8    4    5 1     
    9    4   10 1     
   10    5    6 1     
   11    5    7 2     
   12    6   17 1     
   13    6   18 1     
   14    6   19 1     
   15    7    8 1     
   16    8    9 2     
   17    8   20 1     
   18   10   11 1     
   19   10   12 1     
   20   10   13 1     
   21   11   21 1     
   22   11   22 1     
   23   11   23 1     
   24   12   24 1     
   25   12   25 1     
   26   12   26 1     
   27   13   27 1     
   28   13   28 1     
   29   13   29 1     
@<TRIPOS>SUBSTRUCTURE
      1 ****           1
@<TRIPOS>COMMENT
> <Gold.Version>
2022.2.0

> <Gold.Id.Protein>
1qkm|1qkm_protein|mol2

> <Gold.Protein.RotatedTorsions>
[  496  491  490  487 ] final  -14.49 input  -89.99 | X-H torsion

> <Gold.Protein.ActiveResidues>
 MET295  LEU298  THR299  LEU301  ALA302  GLU305  TRP335  MET336  LEU339  MET340 
 GLY342  LEU343  ARG346  PHE356  ILE373  ILE376  PHE377  LEU380  LYS471  GLY472 
 MET473  HIS475  LEU476  LEU477  ASN478  MET479  VAL484  VAL487 

> <Gold.Protein.RotatedAtoms>
   36.2687   34.4057   42.0961 H   0  0  0  0  0  0  0  0  0  0  0  0  # atno 496  bound_to 491 

> <Gold.Score>
     Score     S(PLP)   S(hbond)     S(cho)   S(metal)  DE(clash)   DE(tors)     intcor
     37.04     -37.15       0.00       0.00       0.00       0.00       0.06       0.00

> <Gold.PLP.Fitness>
37.0385

> <Gold.PLP.PLP>
-37.1493

> <Gold.PLP.part.hbond>
0.0000

> <Gold.PLP.part.metal>
0.0000

> <Gold.PLP.part.buried>
-3.1605

> <Gold.PLP.part.nonpolar>
-34.5467

> <Gold.PLP.part.repulsive>
0.1557

> <Gold.PLP.ligand.clash>
0.0000

> <Gold.PLP.ligand.torsion>
0.0554

> <Gold.PLP.Chemscore.Hbond>
0.0000

> <Gold.PLP.Chemscore.CHOScore>
0.0000

> <Gold.PLP.Chemscore.Metal>
0.0000

> <Gold.PLP.Chemscore.Internal.Correction>
0.0000

