#       Name:                EN300-41936_i001
#       Creating user name   aseyller
#       Creation time:       Fri Apr 21 17:14:42 2023


#       File generated by GOLD software.
#

@<TRIPOS>MOLECULE
EN300-41936_i001|benzaldehydes|mol2|210|dock3
    29    29     1
SMALL
USER_CHARGES


@<TRIPOS>ATOM
      1 C1          31.7998  33.4019  38.7348 C.3            1 <1>                0.0000
      2 C2          31.5764  34.7390  38.0765 C.2            1 <1>                0.0000
      3 N3          32.2302  35.2067  37.0501 N.2            1 <1>                0.0000
      4 N4          31.7341  36.4761  36.7340 N.pl3          1 <1>                0.0000
      5 C5          30.7530  36.7790  37.5970 C.2            1 <1>                0.0000
      6 C6          29.9448  38.0507  37.6189 C.3            1 <1>                0.0000
      7 C7          30.6157  35.7052  38.4600 C.2            1 <1>                0.0000
      8 C8          29.6620  35.5941  39.5688 C.2            1 <1>                0.0000
      9 O9          28.8887  36.5005  39.7968 O.2            1 <1>                0.0000
     10 C10         32.2075  37.3317  35.6431 C.3            1 <1>                0.0000
     11 C11         32.7025  38.6614  36.2158 C.3            1 <1>                0.0000
     12 C12         33.3544  36.6342  34.9088 C.3            1 <1>                0.0000
     13 C13         31.0602  37.5931  34.6652 C.3            1 <1>                0.0000
     14 H14         32.5416  33.5061  39.5266 H              1 <1>                0.0000
     15 H15         30.8619  33.0451  39.1603 H              1 <1>                0.0000
     16 H16         32.1576  32.6872  37.9936 H              1 <1>                0.0000
     17 H17         29.0169  37.9012  37.0668 H              1 <1>                0.0000
     18 H18         29.7148  38.3173  38.6505 H              1 <1>                0.0000
     19 H19         30.5180  38.8536  37.1553 H              1 <1>                0.0000
     20 H20         29.6483  34.7053  40.1823 H              1 <1>                0.0000
     21 H21         33.5199  38.4752  36.9123 H              1 <1>                0.0000
     22 H22         33.0547  39.2979  35.4041 H              1 <1>                0.0000
     23 H23         31.8855  39.1583  36.7388 H              1 <1>                0.0000
     24 H24         33.0018  35.6869  34.5008 H              1 <1>                0.0000
     25 H25         33.7067  37.2707  34.0971 H              1 <1>                0.0000
     26 H26         34.1718  36.4480  35.6055 H              1 <1>                0.0000
     27 H27         30.2793  38.1655  35.1660 H              1 <1>                0.0000
     28 H28         31.4327  38.1575  33.8104 H              1 <1>                0.0000
     29 H29         30.6511  36.6426  34.3227 H              1 <1>                0.0000
@<TRIPOS>BOND
    1    1    2 1     
    2    1   14 1     
    3    1   15 1     
    4    1   16 1     
    5    2    3 2     
    6    2    7 1     
    7    3    4 1     
    8    4    5 1     
    9    4   10 1     
   10    5    6 1     
   11    5    7 2     
   12    6   17 1     
   13    6   18 1     
   14    6   19 1     
   15    7    8 1     
   16    8    9 2     
   17    8   20 1     
   18   10   11 1     
   19   10   12 1     
   20   10   13 1     
   21   11   21 1     
   22   11   22 1     
   23   11   23 1     
   24   12   24 1     
   25   12   25 1     
   26   12   26 1     
   27   13   27 1     
   28   13   28 1     
   29   13   29 1     
@<TRIPOS>SUBSTRUCTURE
      1 ****           1
@<TRIPOS>COMMENT
> <Gold.Version>
2022.2.0

> <Gold.Id.Protein>
1qkm|1qkm_protein|mol2

> <Gold.Protein.RotatedTorsions>
[  496  491  490  487 ] final -142.02 input  -89.99 | X-H torsion

> <Gold.Protein.ActiveResidues>
 MET295  LEU298  THR299  LEU301  ALA302  GLU305  TRP335  MET336  LEU339  MET340 
 GLY342  LEU343  ARG346  PHE356  ILE373  ILE376  PHE377  LEU380  LYS471  GLY472 
 MET473  HIS475  LEU476  LEU477  ASN478  MET479  VAL484  VAL487 

> <Gold.Protein.RotatedAtoms>
   37.1864   34.0433   40.7216 H   0  0  0  0  0  0  0  0  0  0  0  0  # atno 496  bound_to 491 

> <Gold.Score>
     Score     S(PLP)   S(hbond)     S(cho)   S(metal)  DE(clash)   DE(tors)     intcor
     40.36     -40.37       0.00       0.00       0.00       0.00       0.00       0.00

> <Gold.PLP.Fitness>
40.3587

> <Gold.PLP.PLP>
-40.3664

> <Gold.PLP.part.hbond>
0.0000

> <Gold.PLP.part.metal>
0.0000

> <Gold.PLP.part.buried>
-3.7753

> <Gold.PLP.part.nonpolar>
-36.9647

> <Gold.PLP.part.repulsive>
0.0538

> <Gold.PLP.ligand.clash>
0.0000

> <Gold.PLP.ligand.torsion>
0.0039

> <Gold.PLP.Chemscore.Hbond>
0.0000

> <Gold.PLP.Chemscore.CHOScore>
0.0000

> <Gold.PLP.Chemscore.Metal>
0.0000

> <Gold.PLP.Chemscore.Internal.Correction>
0.0000

