#       Name:                EN300-41936_i001
#       Creating user name   aseyller
#       Creation time:       Fri Apr 21 17:14:46 2023


#       File generated by GOLD software.
#

@<TRIPOS>MOLECULE
EN300-41936_i001|benzaldehydes|mol2|210|dock10
    29    29     1
SMALL
USER_CHARGES


@<TRIPOS>ATOM
      1 C1          28.7127  35.8013  40.7259 C.3            1 <1>                0.0000
      2 C2          29.3288  36.3266  39.4548 C.2            1 <1>                0.0000
      3 N3          30.5600  36.1436  39.0672 N.2            1 <1>                0.0000
      4 N4          30.7508  36.7846  37.8383 N.pl3          1 <1>                0.0000
      5 C5          29.5990  37.3699  37.4779 C.2            1 <1>                0.0000
      6 C6          29.3582  38.1680  36.2226 C.3            1 <1>                0.0000
      7 C7          28.6706  37.1002  38.4689 C.2            1 <1>                0.0000
      8 C8          27.2721  37.5415  38.4970 C.2            1 <1>                0.0000
      9 O9          26.5084  37.0849  39.3215 O.2            1 <1>                0.0000
     10 C10         31.9999  36.8124  37.0734 C.3            1 <1>                0.0000
     11 C11         31.8123  36.0462  35.7624 C.3            1 <1>                0.0000
     12 C12         32.3781  38.2628  36.7668 C.3            1 <1>                0.0000
     13 C13         33.1140  36.1570  37.8921 C.3            1 <1>                0.0000
     14 H14         28.8458  36.5323  41.5234 H              1 <1>                0.0000
     15 H15         27.6486  35.6253  40.5682 H              1 <1>                0.0000
     16 H16         29.1981  34.8663  41.0055 H              1 <1>                0.0000
     17 H17         28.9316  37.5206  35.4565 H              1 <1>                0.0000
     18 H18         28.6659  38.9822  36.4369 H              1 <1>                0.0000
     19 H19         30.3029  38.5787  35.8662 H              1 <1>                0.0000
     20 H20         26.9223  38.2729  37.7834 H              1 <1>                0.0000
     21 H21         31.0188  36.5131  35.1791 H              1 <1>                0.0000
     22 H22         32.7417  36.0669  35.1933 H              1 <1>                0.0000
     23 H23         31.5430  35.0129  35.9809 H              1 <1>                0.0000
     24 H24         32.5118  38.8086  37.7008 H              1 <1>                0.0000
     25 H25         33.3075  38.2836  36.1977 H              1 <1>                0.0000
     26 H26         31.5845  38.7297  36.1835 H              1 <1>                0.0000
     27 H27         32.8851  35.1012  38.0375 H              1 <1>                0.0000
     28 H28         34.0606  36.2537  37.3606 H              1 <1>                0.0000
     29 H29         33.1899  36.6492  38.8618 H              1 <1>                0.0000
@<TRIPOS>BOND
    1    1    2 1     
    2    1   14 1     
    3    1   15 1     
    4    1   16 1     
    5    2    3 2     
    6    2    7 1     
    7    3    4 1     
    8    4    5 1     
    9    4   10 1     
   10    5    6 1     
   11    5    7 2     
   12    6   17 1     
   13    6   18 1     
   14    6   19 1     
   15    7    8 1     
   16    8    9 2     
   17    8   20 1     
   18   10   11 1     
   19   10   12 1     
   20   10   13 1     
   21   11   21 1     
   22   11   22 1     
   23   11   23 1     
   24   12   24 1     
   25   12   25 1     
   26   12   26 1     
   27   13   27 1     
   28   13   28 1     
   29   13   29 1     
@<TRIPOS>SUBSTRUCTURE
      1 ****           1
@<TRIPOS>COMMENT
> <Gold.Version>
2022.2.0

> <Gold.Id.Protein>
1qkm|1qkm_protein|mol2

> <Gold.Protein.RotatedTorsions>
[  496  491  490  487 ] final -164.02 input  -89.99 | X-H torsion

> <Gold.Protein.ActiveResidues>
 MET295  LEU298  THR299  LEU301  ALA302  GLU305  TRP335  MET336  LEU339  MET340 
 GLY342  LEU343  ARG346  PHE356  ILE373  ILE376  PHE377  LEU380  LYS471  GLY472 
 MET473  HIS475  LEU476  LEU477  ASN478  MET479  VAL484  VAL487 

> <Gold.Protein.RotatedAtoms>
   37.2887   33.7008   40.7638 H   0  0  0  0  0  0  0  0  0  0  0  0  # atno 496  bound_to 491 

> <Gold.Score>
     Score     S(PLP)   S(hbond)     S(cho)   S(metal)  DE(clash)   DE(tors)     intcor
     36.65     -36.92       0.00       0.00       0.00       0.00       0.13       0.00

> <Gold.PLP.Fitness>
36.6532

> <Gold.PLP.PLP>
-36.9214

> <Gold.PLP.part.hbond>
0.0000

> <Gold.PLP.part.metal>
0.0000

> <Gold.PLP.part.buried>
-3.1872

> <Gold.PLP.part.nonpolar>
-34.0214

> <Gold.PLP.part.repulsive>
0.1270

> <Gold.PLP.ligand.clash>
0.0000

> <Gold.PLP.ligand.torsion>
0.1341

> <Gold.PLP.Chemscore.Hbond>
0.0000

> <Gold.PLP.Chemscore.CHOScore>
0.0000

> <Gold.PLP.Chemscore.Metal>
0.0000

> <Gold.PLP.Chemscore.Internal.Correction>
0.0000

