#       Name:                EN300-41936_i001
#       Creating user name   aseyller
#       Creation time:       Fri Apr 21 17:14:42 2023


#       File generated by GOLD software.
#

@<TRIPOS>MOLECULE
EN300-41936_i001|benzaldehydes|mol2|210|dock2
    29    29     1
SMALL
USER_CHARGES


@<TRIPOS>ATOM
      1 C1          29.3402  39.8043  35.9950 C.3            1 <1>                0.0000
      2 C2          29.4643  38.6581  36.9655 C.2            1 <1>                0.0000
      3 N3          28.5290  38.2250  37.7639 N.2            1 <1>                0.0000
      4 N4          29.0266  37.1493  38.5073 N.pl3          1 <1>                0.0000
      5 C5          30.2990  36.9304  38.1438 C.2            1 <1>                0.0000
      6 C6          31.2137  35.8665  38.6934 C.3            1 <1>                0.0000
      7 C7          30.6149  37.8585  37.1662 C.2            1 <1>                0.0000
      8 C8          31.9021  37.9941  36.4761 C.2            1 <1>                0.0000
      9 O9          32.6857  37.0682  36.4666 O.2            1 <1>                0.0000
     10 C10         28.2823  36.3893  39.5146 C.3            1 <1>                0.0000
     11 C11         26.8237  36.8510  39.5271 C.3            1 <1>                0.0000
     12 C12         28.3425  34.8984  39.1760 C.3            1 <1>                0.0000
     13 C13         28.9035  36.6247  40.8929 C.3            1 <1>                0.0000
     14 H14         29.6305  40.7316  36.4888 H              1 <1>                0.0000
     15 H15         29.9925  39.6284  35.1396 H              1 <1>                0.0000
     16 H16         28.3076  39.8819  35.6546 H              1 <1>                0.0000
     17 H17         31.1833  34.9907  38.0451 H              1 <1>                0.0000
     18 H18         32.2328  36.2507  38.7374 H              1 <1>                0.0000
     19 H19         30.8868  35.5883  39.6953 H              1 <1>                0.0000
     20 H20         32.1522  38.9185  35.9767 H              1 <1>                0.0000
     21 H21         26.3811  36.6832  38.5452 H              1 <1>                0.0000
     22 H22         26.2700  36.2855  40.2765 H              1 <1>                0.0000
     23 H23         26.7809  37.9130  39.7683 H              1 <1>                0.0000
     24 H24         29.3816  34.5695  39.1672 H              1 <1>                0.0000
     25 H25         27.7888  34.3329  39.9255 H              1 <1>                0.0000
     26 H26         27.8999  34.7307  38.1941 H              1 <1>                0.0000
     27 H27         28.7840  37.6718  41.1713 H              1 <1>                0.0000
     28 H28         28.4049  35.9939  41.6288 H              1 <1>                0.0000
     29 H29         29.9644  36.3762  40.8605 H              1 <1>                0.0000
@<TRIPOS>BOND
    1    1    2 1     
    2    1   14 1     
    3    1   15 1     
    4    1   16 1     
    5    2    3 2     
    6    2    7 1     
    7    3    4 1     
    8    4    5 1     
    9    4   10 1     
   10    5    6 1     
   11    5    7 2     
   12    6   17 1     
   13    6   18 1     
   14    6   19 1     
   15    7    8 1     
   16    8    9 2     
   17    8   20 1     
   18   10   11 1     
   19   10   12 1     
   20   10   13 1     
   21   11   21 1     
   22   11   22 1     
   23   11   23 1     
   24   12   24 1     
   25   12   25 1     
   26   12   26 1     
   27   13   27 1     
   28   13   28 1     
   29   13   29 1     
@<TRIPOS>SUBSTRUCTURE
      1 ****           1
@<TRIPOS>COMMENT
> <Gold.Version>
2022.2.0

> <Gold.Id.Protein>
1qkm|1qkm_protein|mol2

> <Gold.Protein.RotatedTorsions>
[  496  491  490  487 ] final  106.51 input  -89.99 | X-H torsion

> <Gold.Protein.ActiveResidues>
 MET295  LEU298  THR299  LEU301  ALA302  GLU305  TRP335  MET336  LEU339  MET340 
 GLY342  LEU343  ARG346  PHE356  ILE373  ILE376  PHE377  LEU380  LYS471  GLY472 
 MET473  HIS475  LEU476  LEU477  ASN478  MET479  VAL484  VAL487 

> <Gold.Protein.RotatedAtoms>
   36.9693   32.9487   41.8103 H   0  0  0  0  0  0  0  0  0  0  0  0  # atno 496  bound_to 491 

> <Gold.Score>
     Score     S(PLP)   S(hbond)     S(cho)   S(metal)  DE(clash)   DE(tors)     intcor
     38.91     -39.30       0.00       0.00       0.00       0.00       0.19       0.00

> <Gold.PLP.Fitness>
38.9118

> <Gold.PLP.PLP>
-39.2968

> <Gold.PLP.part.hbond>
0.0000

> <Gold.PLP.part.metal>
0.0000

> <Gold.PLP.part.buried>
-1.3026

> <Gold.PLP.part.nonpolar>
-38.8910

> <Gold.PLP.part.repulsive>
0.0060

> <Gold.PLP.ligand.clash>
0.0000

> <Gold.PLP.ligand.torsion>
0.1927

> <Gold.PLP.Chemscore.Hbond>
0.0000

> <Gold.PLP.Chemscore.CHOScore>
0.0000

> <Gold.PLP.Chemscore.Metal>
0.0000

> <Gold.PLP.Chemscore.Internal.Correction>
0.0003

