#       Name:                EN300-41936_i001
#       Creating user name   aseyller
#       Creation time:       Fri Apr 21 17:14:45 2023


#       File generated by GOLD software.
#

@<TRIPOS>MOLECULE
EN300-41936_i001|benzaldehydes|mol2|210|dock8
    29    29     1
SMALL
USER_CHARGES


@<TRIPOS>ATOM
      1 C1          29.5982  35.3620  39.8104 C.3            1 <1>                0.0000
      2 C2          29.4874  36.4821  38.8083 C.2            1 <1>                0.0000
      3 N3          30.4582  36.9571  38.0792 N.2            1 <1>                0.0000
      4 N4          29.9613  37.9882  37.2746 N.pl3          1 <1>                0.0000
      5 C5          28.6526  38.1363  37.5288 C.2            1 <1>                0.0000
      6 C6          27.7254  39.1338  36.8838 C.3            1 <1>                0.0000
      7 C7          28.3096  37.1993  38.4887 C.2            1 <1>                0.0000
      8 C8          26.9793  36.9952  39.0717 C.2            1 <1>                0.0000
      9 O9          26.8088  36.1315  39.9063 O.2            1 <1>                0.0000
     10 C10         30.7402  38.7751  36.3153 C.3            1 <1>                0.0000
     11 C11         30.6001  40.2630  36.6431 C.3            1 <1>                0.0000
     12 C12         32.2133  38.3705  36.4007 C.3            1 <1>                0.0000
     13 C13         30.2207  38.5136  34.9001 C.3            1 <1>                0.0000
     14 H14         29.8447  35.7733  40.7893 H              1 <1>                0.0000
     15 H15         28.6481  34.8309  39.8683 H              1 <1>                0.0000
     16 H16         30.3820  34.6718  39.4986 H              1 <1>                0.0000
     17 H17         27.2124  38.6635  36.0450 H              1 <1>                0.0000
     18 H18         26.9914  39.4730  37.6148 H              1 <1>                0.0000
     19 H19         28.3019  39.9866  36.5252 H              1 <1>                0.0000
     20 H20         26.1515  37.6138  38.7578 H              1 <1>                0.0000
     21 H21         30.9703  40.4494  37.6512 H              1 <1>                0.0000
     22 H22         31.1798  40.8484  35.9293 H              1 <1>                0.0000
     23 H23         29.5508  40.5512  36.5822 H              1 <1>                0.0000
     24 H24         32.3130  37.3105  36.1671 H              1 <1>                0.0000
     25 H25         32.7929  38.9559  35.6869 H              1 <1>                0.0000
     26 H26         32.5834  38.5568  37.4089 H              1 <1>                0.0000
     27 H27         29.1978  38.8805  34.8149 H              1 <1>                0.0000
     28 H28         30.8536  39.0312  34.1793 H              1 <1>                0.0000
     29 H29         30.2406  37.4426  34.6979 H              1 <1>                0.0000
@<TRIPOS>BOND
    1    1    2 1     
    2    1   14 1     
    3    1   15 1     
    4    1   16 1     
    5    2    3 2     
    6    2    7 1     
    7    3    4 1     
    8    4    5 1     
    9    4   10 1     
   10    5    6 1     
   11    5    7 2     
   12    6   17 1     
   13    6   18 1     
   14    6   19 1     
   15    7    8 1     
   16    8    9 2     
   17    8   20 1     
   18   10   11 1     
   19   10   12 1     
   20   10   13 1     
   21   11   21 1     
   22   11   22 1     
   23   11   23 1     
   24   12   24 1     
   25   12   25 1     
   26   12   26 1     
   27   13   27 1     
   28   13   28 1     
   29   13   29 1     
@<TRIPOS>SUBSTRUCTURE
      1 ****           1
@<TRIPOS>COMMENT
> <Gold.Version>
2022.2.0

> <Gold.Id.Protein>
1qkm|1qkm_protein|mol2

> <Gold.Protein.RotatedTorsions>
[  496  491  490  487 ] final   63.27 input  -89.99 | X-H torsion

> <Gold.Protein.ActiveResidues>
 MET295  LEU298  THR299  LEU301  ALA302  GLU305  TRP335  MET336  LEU339  MET340 
 GLY342  LEU343  ARG346  PHE356  ILE373  ILE376  PHE377  LEU380  LYS471  GLY472 
 MET473  HIS475  LEU476  LEU477  ASN478  MET479  VAL484  VAL487 

> <Gold.Protein.RotatedAtoms>
   36.5789   33.2783   42.2815 H   0  0  0  0  0  0  0  0  0  0  0  0  # atno 496  bound_to 491 

> <Gold.Score>
     Score     S(PLP)   S(hbond)     S(cho)   S(metal)  DE(clash)   DE(tors)     intcor
     36.99     -37.10       0.00       0.00       0.00       0.00       0.06       0.00

> <Gold.PLP.Fitness>
36.9875

> <Gold.PLP.PLP>
-37.1006

> <Gold.PLP.part.hbond>
0.0000

> <Gold.PLP.part.metal>
0.0000

> <Gold.PLP.part.buried>
-1.6020

> <Gold.PLP.part.nonpolar>
-36.1955

> <Gold.PLP.part.repulsive>
0.0933

> <Gold.PLP.ligand.clash>
0.0000

> <Gold.PLP.ligand.torsion>
0.0566

> <Gold.PLP.Chemscore.Hbond>
0.0000

> <Gold.PLP.Chemscore.CHOScore>
0.0000

> <Gold.PLP.Chemscore.Metal>
0.0000

> <Gold.PLP.Chemscore.Internal.Correction>
0.0000

