#       Name:                EN300-41936_i001
#       Creating user name   aseyller
#       Creation time:       Fri Apr 21 17:14:51 2023


#       File generated by GOLD software.
#

@<TRIPOS>MOLECULE
EN300-41936_i001|benzaldehydes|mol2|210|dock20
    29    29     1
SMALL
USER_CHARGES


@<TRIPOS>ATOM
      1 C1          32.7188  35.9206  35.5423 C.3            1 <1>                0.0000
      2 C2          31.5605  36.4758  36.3306 C.2            1 <1>                0.0000
      3 N3          30.9229  35.8647  37.2896 N.2            1 <1>                0.0000
      4 N4          29.9135  36.7044  37.7729 N.pl3          1 <1>                0.0000
      5 C5          29.9466  37.8540  37.0828 C.2            1 <1>                0.0000
      6 C6          29.0342  39.0377  37.2763 C.3            1 <1>                0.0000
      7 C7          30.9776  37.7550  36.1640 C.2            1 <1>                0.0000
      8 C8          31.3827  38.7782  35.1943 C.2            1 <1>                0.0000
      9 O9          32.1520  38.4955  34.3000 O.2            1 <1>                0.0000
     10 C10         28.9767  36.3816  38.8519 C.3            1 <1>                0.0000
     11 C11         29.0962  34.8974  39.2041 C.3            1 <1>                0.0000
     12 C12         29.3072  37.2263  40.0841 C.3            1 <1>                0.0000
     13 C13         27.5483  36.6838  38.3947 C.3            1 <1>                0.0000
     14 H14         32.3422  35.3939  34.6655 H              1 <1>                0.0000
     15 H15         33.3671  36.7373  35.2250 H              1 <1>                0.0000
     16 H16         33.2846  35.2290  36.1664 H              1 <1>                0.0000
     17 H17         29.5113  39.7597  37.9390 H              1 <1>                0.0000
     18 H18         28.8362  39.5052  36.3118 H              1 <1>                0.0000
     19 H19         28.0952  38.7042  37.7181 H              1 <1>                0.0000
     20 H20         30.9961  39.7833  35.2767 H              1 <1>                0.0000
     21 H21         30.1138  34.6821  39.5300 H              1 <1>                0.0000
     22 H22         28.3992  34.6573  40.0070 H              1 <1>                0.0000
     23 H23         28.8607  34.2957  38.3264 H              1 <1>                0.0000
     24 H24         29.2221  38.2836  39.8332 H              1 <1>                0.0000
     25 H25         28.6103  36.9861  40.8870 H              1 <1>                0.0000
     26 H26         30.3249  37.0110  40.4099 H              1 <1>                0.0000
     27 H27         27.2827  36.0213  37.5708 H              1 <1>                0.0000
     28 H28         26.8598  36.5253  39.2247 H              1 <1>                0.0000
     29 H29         27.4847  37.7201  38.0627 H              1 <1>                0.0000
@<TRIPOS>BOND
    1    1    2 1     
    2    1   14 1     
    3    1   15 1     
    4    1   16 1     
    5    2    3 2     
    6    2    7 1     
    7    3    4 1     
    8    4    5 1     
    9    4   10 1     
   10    5    6 1     
   11    5    7 2     
   12    6   17 1     
   13    6   18 1     
   14    6   19 1     
   15    7    8 1     
   16    8    9 2     
   17    8   20 1     
   18   10   11 1     
   19   10   12 1     
   20   10   13 1     
   21   11   21 1     
   22   11   22 1     
   23   11   23 1     
   24   12   24 1     
   25   12   25 1     
   26   12   26 1     
   27   13   27 1     
   28   13   28 1     
   29   13   29 1     
@<TRIPOS>SUBSTRUCTURE
      1 ****           1
@<TRIPOS>COMMENT
> <Gold.Version>
2022.2.0

> <Gold.Id.Protein>
1qkm|1qkm_protein|mol2

> <Gold.Protein.RotatedTorsions>
[  496  491  490  487 ] final -140.01 input  -89.99 | X-H torsion

> <Gold.Protein.ActiveResidues>
 MET295  LEU298  THR299  LEU301  ALA302  GLU305  TRP335  MET336  LEU339  MET340 
 GLY342  LEU343  ARG346  PHE356  ILE373  ILE376  PHE377  LEU380  LYS471  GLY472 
 MET473  HIS475  LEU476  LEU477  ASN478  MET479  VAL484  VAL487 

> <Gold.Protein.RotatedAtoms>
   37.1739   34.0737   40.7238 H   0  0  0  0  0  0  0  0  0  0  0  0  # atno 496  bound_to 491 

> <Gold.Score>
     Score     S(PLP)   S(hbond)     S(cho)   S(metal)  DE(clash)   DE(tors)     intcor
     35.53     -36.19       0.00       0.00       0.00       0.00       0.33       0.00

> <Gold.PLP.Fitness>
35.5266

> <Gold.PLP.PLP>
-36.1869

> <Gold.PLP.part.hbond>
0.0000

> <Gold.PLP.part.metal>
0.0000

> <Gold.PLP.part.buried>
-2.1677

> <Gold.PLP.part.nonpolar>
-33.2708

> <Gold.PLP.part.repulsive>
0.1225

> <Gold.PLP.ligand.clash>
0.0020

> <Gold.PLP.ligand.torsion>
0.3292

> <Gold.PLP.Chemscore.Hbond>
0.0000

> <Gold.PLP.Chemscore.CHOScore>
0.0000

> <Gold.PLP.Chemscore.Metal>
0.0000

> <Gold.PLP.Chemscore.Internal.Correction>
0.0000

