#       Name:                EN300-41936_i001
#       Creating user name   aseyller
#       Creation time:       Fri Apr 21 17:14:42 2023


#       File generated by GOLD software.
#

@<TRIPOS>MOLECULE
EN300-41936_i001|benzaldehydes|mol2|210|dock1
    29    29     1
SMALL
USER_CHARGES


@<TRIPOS>ATOM
      1 C1          30.0901  39.6124  36.1470 C.3            1 <1>                0.0000
      2 C2          29.6677  38.5188  37.0940 C.2            1 <1>                0.0000
      3 N3          28.4717  38.3489  37.5840 N.2            1 <1>                0.0000
      4 N4          28.4774  37.2281  38.4215 N.pl3          1 <1>                0.0000
      5 C5          29.7146  36.7101  38.4342 C.2            1 <1>                0.0000
      6 C6          30.1663  35.4970  39.2057 C.3            1 <1>                0.0000
      7 C7          30.4985  37.4920  37.6029 C.2            1 <1>                0.0000
      8 C8          31.9232  37.2988  37.3127 C.2            1 <1>                0.0000
      9 O9          32.5118  36.3430  37.7725 O.2            1 <1>                0.0000
     10 C10         27.3250  36.7077  39.1613 C.3            1 <1>                0.0000
     11 C11         27.0198  35.2832  38.6938 C.3            1 <1>                0.0000
     12 C12         27.6425  36.6964  40.6579 C.3            1 <1>                0.0000
     13 C13         26.1090  37.6001  38.9047 C.3            1 <1>                0.0000
     14 H14         30.4348  40.4745  36.7180 H              1 <1>                0.0000
     15 H15         30.8985  39.2507  35.5116 H              1 <1>                0.0000
     16 H16         29.2425  39.9030  35.5264 H              1 <1>                0.0000
     17 H17         30.1192  34.6186  38.5619 H              1 <1>                0.0000
     18 H18         31.1914  35.6436  39.5458 H              1 <1>                0.0000
     19 H19         29.5149  35.3511  40.0674 H              1 <1>                0.0000
     20 H20         32.4483  38.0078  36.6896 H              1 <1>                0.0000
     21 H21         27.8861  34.6474  38.8767 H              1 <1>                0.0000
     22 H22         26.1624  34.8960  39.2443 H              1 <1>                0.0000
     23 H23         26.7936  35.2913  37.6277 H              1 <1>                0.0000
     24 H24         27.8599  37.7112  40.9909 H              1 <1>                0.0000
     25 H25         26.7851  36.3092  41.2084 H              1 <1>                0.0000
     26 H26         28.5088  36.0606  40.8407 H              1 <1>                0.0000
     27 H27         25.8303  37.5408  37.8526 H              1 <1>                0.0000
     28 H28         25.2751  37.2640  39.5209 H              1 <1>                0.0000
     29 H29         26.3552  38.6314  39.1578 H              1 <1>                0.0000
@<TRIPOS>BOND
    1    1    2 1     
    2    1   14 1     
    3    1   15 1     
    4    1   16 1     
    5    2    3 2     
    6    2    7 1     
    7    3    4 1     
    8    4    5 1     
    9    4   10 1     
   10    5    6 1     
   11    5    7 2     
   12    6   17 1     
   13    6   18 1     
   14    6   19 1     
   15    7    8 1     
   16    8    9 2     
   17    8   20 1     
   18   10   11 1     
   19   10   12 1     
   20   10   13 1     
   21   11   21 1     
   22   11   22 1     
   23   11   23 1     
   24   12   24 1     
   25   12   25 1     
   26   12   26 1     
   27   13   27 1     
   28   13   28 1     
   29   13   29 1     
@<TRIPOS>SUBSTRUCTURE
      1 ****           1
@<TRIPOS>COMMENT
> <Gold.Version>
2022.2.0

> <Gold.Id.Protein>
1qkm|1qkm_protein|mol2

> <Gold.Protein.RotatedTorsions>
[  496  491  490  487 ] final  125.66 input  -89.99 | X-H torsion

> <Gold.Protein.ActiveResidues>
 MET295  LEU298  THR299  LEU301  ALA302  GLU305  TRP335  MET336  LEU339  MET340 
 GLY342  LEU343  ARG346  PHE356  ILE373  ILE376  PHE377  LEU380  LYS471  GLY472 
 MET473  HIS475  LEU476  LEU477  ASN478  MET479  VAL484  VAL487 

> <Gold.Protein.RotatedAtoms>
   37.1228   32.9557   41.5367 H   0  0  0  0  0  0  0  0  0  0  0  0  # atno 496  bound_to 491 

> <Gold.Score>
     Score     S(PLP)   S(hbond)     S(cho)   S(metal)  DE(clash)   DE(tors)     intcor
     39.67     -39.69       0.00       0.00       0.00       0.00       0.01       0.00

> <Gold.PLP.Fitness>
39.6708

> <Gold.PLP.PLP>
-39.6858

> <Gold.PLP.part.hbond>
0.0000

> <Gold.PLP.part.metal>
0.0000

> <Gold.PLP.part.buried>
-1.9248

> <Gold.PLP.part.nonpolar>
-38.1561

> <Gold.PLP.part.repulsive>
0.0241

> <Gold.PLP.ligand.clash>
0.0000

> <Gold.PLP.ligand.torsion>
0.0085

> <Gold.PLP.Chemscore.Hbond>
0.0000

> <Gold.PLP.Chemscore.CHOScore>
0.0000

> <Gold.PLP.Chemscore.Metal>
0.0000

> <Gold.PLP.Chemscore.Internal.Correction>
0.0019

