#       Name:                EN300-41936_i001
#       Creating user name   aseyller
#       Creation time:       Fri Apr 21 17:14:44 2023


#       File generated by GOLD software.
#

@<TRIPOS>MOLECULE
EN300-41936_i001|benzaldehydes|mol2|210|dock7
    29    29     1
SMALL
USER_CHARGES


@<TRIPOS>ATOM
      1 C1          30.8340  38.4002  34.8900 C.3            1 <1>                0.0000
      2 C2          30.6589  37.5917  36.1497 C.2            1 <1>                0.0000
      3 N3          29.6002  37.5772  36.9102 N.2            1 <1>                0.0000
      4 N4          29.8210  36.7055  37.9820 N.pl3          1 <1>                0.0000
      5 C5          31.0496  36.1812  37.8608 C.2            1 <1>                0.0000
      6 C6          31.6951  35.1939  38.7984 C.3            1 <1>                0.0000
      7 C7          31.6129  36.7099  36.7118 C.2            1 <1>                0.0000
      8 C8          32.9496  36.4190  36.1826 C.2            1 <1>                0.0000
      9 O9          33.3005  36.8978  35.1247 O.2            1 <1>                0.0000
     10 C10         28.8696  36.4144  39.0573 C.3            1 <1>                0.0000
     11 C11         27.5211  37.0609  38.7340 C.3            1 <1>                0.0000
     12 C12         28.6916  34.9002  39.1849 C.3            1 <1>                0.0000
     13 C13         29.4022  36.9783  40.3761 C.3            1 <1>                0.0000
     14 H14         31.2624  39.3713  35.1381 H              1 <1>                0.0000
     15 H15         31.5013  37.8720  34.2090 H              1 <1>                0.0000
     16 H16         29.8649  38.5422  34.4118 H              1 <1>                0.0000
     17 H17         31.5426  34.1823  38.4223 H              1 <1>                0.0000
     18 H18         32.7635  35.3999  38.8638 H              1 <1>                0.0000
     19 H19         31.2463  35.2852  39.7875 H              1 <1>                0.0000
     20 H20         33.6212  35.7783  36.7348 H              1 <1>                0.0000
     21 H21         27.1415  36.6592  37.7945 H              1 <1>                0.0000
     22 H22         26.8131  36.8443  39.5340 H              1 <1>                0.0000
     23 H23         27.6478  38.1396  38.6431 H              1 <1>                0.0000
     24 H24         29.6524  34.4396  39.4153 H              1 <1>                0.0000
     25 H25         27.9837  34.6835  39.9849 H              1 <1>                0.0000
     26 H26         28.3121  34.4985  38.2453 H              1 <1>                0.0000
     27 H27         29.4479  38.0656  40.3143 H              1 <1>                0.0000
     28 H28         28.7378  36.6882  41.1900 H              1 <1>                0.0000
     29 H29         30.4005  36.5827  40.5635 H              1 <1>                0.0000
@<TRIPOS>BOND
    1    1    2 1     
    2    1   14 1     
    3    1   15 1     
    4    1   16 1     
    5    2    3 2     
    6    2    7 1     
    7    3    4 1     
    8    4    5 1     
    9    4   10 1     
   10    5    6 1     
   11    5    7 2     
   12    6   17 1     
   13    6   18 1     
   14    6   19 1     
   15    7    8 1     
   16    8    9 2     
   17    8   20 1     
   18   10   11 1     
   19   10   12 1     
   20   10   13 1     
   21   11   21 1     
   22   11   22 1     
   23   11   23 1     
   24   12   24 1     
   25   12   25 1     
   26   12   26 1     
   27   13   27 1     
   28   13   28 1     
   29   13   29 1     
@<TRIPOS>SUBSTRUCTURE
      1 ****           1
@<TRIPOS>COMMENT
> <Gold.Version>
2022.2.0

> <Gold.Id.Protein>
1qkm|1qkm_protein|mol2

> <Gold.Protein.RotatedTorsions>
[  496  491  490  487 ] final -164.37 input  -89.99 | X-H torsion

> <Gold.Protein.ActiveResidues>
 MET295  LEU298  THR299  LEU301  ALA302  GLU305  TRP335  MET336  LEU339  MET340 
 GLY342  LEU343  ARG346  PHE356  ILE373  ILE376  PHE377  LEU380  LYS471  GLY472 
 MET473  HIS475  LEU476  LEU477  ASN478  MET479  VAL484  VAL487 

> <Gold.Protein.RotatedAtoms>
   37.2898   33.6953   40.7654 H   0  0  0  0  0  0  0  0  0  0  0  0  # atno 496  bound_to 491 

> <Gold.Score>
     Score     S(PLP)   S(hbond)     S(cho)   S(metal)  DE(clash)   DE(tors)     intcor
     38.35     -38.69       0.00       0.00       0.00       0.00       0.17       0.00

> <Gold.PLP.Fitness>
38.3505

> <Gold.PLP.PLP>
-38.6945

> <Gold.PLP.part.hbond>
0.0000

> <Gold.PLP.part.metal>
0.0000

> <Gold.PLP.part.buried>
-2.7549

> <Gold.PLP.part.nonpolar>
-35.9260

> <Gold.PLP.part.repulsive>
0.1363

> <Gold.PLP.ligand.clash>
0.0000

> <Gold.PLP.ligand.torsion>
0.1720

> <Gold.PLP.Chemscore.Hbond>
0.0000

> <Gold.PLP.Chemscore.CHOScore>
0.0000

> <Gold.PLP.Chemscore.Metal>
0.0000

> <Gold.PLP.Chemscore.Internal.Correction>
0.0000

