#       Name:                EN300-41936_i001
#       Creating user name   aseyller
#       Creation time:       Fri Apr 21 17:14:48 2023


#       File generated by GOLD software.
#

@<TRIPOS>MOLECULE
EN300-41936_i001|benzaldehydes|mol2|210|dock14
    29    29     1
SMALL
USER_CHARGES


@<TRIPOS>ATOM
      1 C1          28.1364  39.0997  37.0096 C.3            1 <1>                0.0000
      2 C2          29.2534  38.1063  37.2005 C.2            1 <1>                0.0000
      3 N3          30.3594  38.0548  36.5121 N.2            1 <1>                0.0000
      4 N4          31.1424  36.9968  36.9864 N.pl3          1 <1>                0.0000
      5 C5          30.4862  36.3953  37.9897 C.2            1 <1>                0.0000
      6 C6          30.9664  35.2094  38.7859 C.3            1 <1>                0.0000
      7 C7          29.2890  37.0688  38.1628 C.2            1 <1>                0.0000
      8 C8          28.2493  36.7593  39.1500 C.2            1 <1>                0.0000
      9 O9          28.4298  35.8795  39.9655 O.2            1 <1>                0.0000
     10 C10         32.4588  36.6103  36.4727 C.3            1 <1>                0.0000
     11 C11         33.4775  36.6297  37.6140 C.3            1 <1>                0.0000
     12 C12         32.3819  35.2011  35.8816 C.3            1 <1>                0.0000
     13 C13         32.8918  37.5962  35.3858 C.3            1 <1>                0.0000
     14 H14         27.4183  38.7053  36.2906 H              1 <1>                0.0000
     15 H15         27.6377  39.2734  37.9631 H              1 <1>                0.0000
     16 H16         28.5452  40.0388  36.6369 H              1 <1>                0.0000
     17 H17         31.4511  35.5566  39.6984 H              1 <1>                0.0000
     18 H18         30.1169  34.5769  39.0438 H              1 <1>                0.0000
     19 H19         31.6785  34.6370  38.1915 H              1 <1>                0.0000
     20 H20         27.3229  37.3145  39.1507 H              1 <1>                0.0000
     21 H21         33.1692  35.9272  38.3883 H              1 <1>                0.0000
     22 H22         34.4569  36.3420  37.2318 H              1 <1>                0.0000
     23 H23         33.5323  37.6335  38.0351 H              1 <1>                0.0000
     24 H24         31.6562  35.1873  35.0685 H              1 <1>                0.0000
     25 H25         33.3613  34.9134  35.4993 H              1 <1>                0.0000
     26 H26         32.0735  34.4987  36.6559 H              1 <1>                0.0000
     27 H27         33.0296  38.5841  35.8254 H              1 <1>                0.0000
     28 H28         33.8302  37.2611  34.9441 H              1 <1>                0.0000
     29 H29         32.1240  37.6460  34.6136 H              1 <1>                0.0000
@<TRIPOS>BOND
    1    1    2 1     
    2    1   14 1     
    3    1   15 1     
    4    1   16 1     
    5    2    3 2     
    6    2    7 1     
    7    3    4 1     
    8    4    5 1     
    9    4   10 1     
   10    5    6 1     
   11    5    7 2     
   12    6   17 1     
   13    6   18 1     
   14    6   19 1     
   15    7    8 1     
   16    8    9 2     
   17    8   20 1     
   18   10   11 1     
   19   10   12 1     
   20   10   13 1     
   21   11   21 1     
   22   11   22 1     
   23   11   23 1     
   24   12   24 1     
   25   12   25 1     
   26   12   26 1     
   27   13   27 1     
   28   13   28 1     
   29   13   29 1     
@<TRIPOS>SUBSTRUCTURE
      1 ****           1
@<TRIPOS>COMMENT
> <Gold.Version>
2022.2.0

> <Gold.Id.Protein>
1qkm|1qkm_protein|mol2

> <Gold.Protein.RotatedTorsions>
[  496  491  490  487 ] final  -60.07 input  -89.99 | X-H torsion

> <Gold.Protein.ActiveResidues>
 MET295  LEU298  THR299  LEU301  ALA302  GLU305  TRP335  MET336  LEU339  MET340 
 GLY342  LEU343  ARG346  PHE356  ILE373  ILE376  PHE377  LEU380  LYS471  GLY472 
 MET473  HIS475  LEU476  LEU477  ASN478  MET479  VAL484  VAL487 

> <Gold.Protein.RotatedAtoms>
   36.4976   34.7321   41.4837 H   0  0  0  0  0  0  0  0  0  0  0  0  # atno 496  bound_to 491 

> <Gold.Score>
     Score     S(PLP)   S(hbond)     S(cho)   S(metal)  DE(clash)   DE(tors)     intcor
     37.08     -37.15       0.00       0.00       0.00       0.00       0.04       0.00

> <Gold.PLP.Fitness>
37.0818

> <Gold.PLP.PLP>
-37.1540

> <Gold.PLP.part.hbond>
0.0000

> <Gold.PLP.part.metal>
0.0000

> <Gold.PLP.part.buried>
-2.6912

> <Gold.PLP.part.nonpolar>
-35.0288

> <Gold.PLP.part.repulsive>
0.0623

> <Gold.PLP.ligand.clash>
0.0000

> <Gold.PLP.ligand.torsion>
0.0361

> <Gold.PLP.Chemscore.Hbond>
0.0000

> <Gold.PLP.Chemscore.CHOScore>
0.0000

> <Gold.PLP.Chemscore.Metal>
0.0000

> <Gold.PLP.Chemscore.Internal.Correction>
0.0000

