#       Name:                EN300-41936_i001
#       Creating user name   aseyller
#       Creation time:       Fri Apr 21 17:14:47 2023


#       File generated by GOLD software.
#

@<TRIPOS>MOLECULE
EN300-41936_i001|benzaldehydes|mol2|210|dock12
    29    29     1
SMALL
USER_CHARGES


@<TRIPOS>ATOM
      1 C1          29.0999  35.8151  40.4051 C.3            1 <1>                0.0000
      2 C2          29.7619  36.2993  39.1408 C.2            1 <1>                0.0000
      3 N3          29.4843  37.4027  38.5043 N.2            1 <1>                0.0000
      4 N4          30.3105  37.5000  37.3794 N.pl3          1 <1>                0.0000
      5 C5          31.1079  36.4222  37.3399 C.2            1 <1>                0.0000
      6 C6          32.1521  36.1223  36.2956 C.3            1 <1>                0.0000
      7 C7          30.7989  35.6390  38.4390 C.2            1 <1>                0.0000
      8 C8          31.4212  34.3614  38.8019 C.2            1 <1>                0.0000
      9 O9          32.0931  33.7615  37.9894 O.2            1 <1>                0.0000
     10 C10         30.3051  38.5956  36.4070 C.3            1 <1>                0.0000
     11 C11         31.6751  39.2768  36.3985 C.3            1 <1>                0.0000
     12 C12         30.0034  38.0396  35.0138 C.3            1 <1>                0.0000
     13 C13         29.2312  39.6148  36.7928 C.3            1 <1>                0.0000
     14 H14         28.2378  35.1986  40.1506 H              1 <1>                0.0000
     15 H15         29.8102  35.2252  40.9842 H              1 <1>                0.0000
     16 H16         28.7728  36.6714  40.9948 H              1 <1>                0.0000
     17 H17         33.1249  36.4688  36.6444 H              1 <1>                0.0000
     18 H18         32.1911  35.0475  36.1189 H              1 <1>                0.0000
     19 H19         31.8955  36.6339  35.3679 H              1 <1>                0.0000
     20 H20         31.2810  33.9547  39.7926 H              1 <1>                0.0000
     21 H21         32.4402  38.5508  36.1235 H              1 <1>                0.0000
     22 H22         31.6711  40.0920  35.6749 H              1 <1>                0.0000
     23 H23         31.8900  39.6729  37.3909 H              1 <1>                0.0000
     24 H24         29.0274  37.5543  35.0199 H              1 <1>                0.0000
     25 H25         29.9994  38.8548  34.2902 H              1 <1>                0.0000
     26 H26         30.7685  37.3135  34.7389 H              1 <1>                0.0000
     27 H27         29.4916  40.0736  37.7467 H              1 <1>                0.0000
     28 H28         29.1684  40.3852  36.0243 H              1 <1>                0.0000
     29 H29         28.2683  39.1117  36.8825 H              1 <1>                0.0000
@<TRIPOS>BOND
    1    1    2 1     
    2    1   14 1     
    3    1   15 1     
    4    1   16 1     
    5    2    3 2     
    6    2    7 1     
    7    3    4 1     
    8    4    5 1     
    9    4   10 1     
   10    5    6 1     
   11    5    7 2     
   12    6   17 1     
   13    6   18 1     
   14    6   19 1     
   15    7    8 1     
   16    8    9 2     
   17    8   20 1     
   18   10   11 1     
   19   10   12 1     
   20   10   13 1     
   21   11   21 1     
   22   11   22 1     
   23   11   23 1     
   24   12   24 1     
   25   12   25 1     
   26   12   26 1     
   27   13   27 1     
   28   13   28 1     
   29   13   29 1     
@<TRIPOS>SUBSTRUCTURE
      1 ****           1
@<TRIPOS>COMMENT
> <Gold.Version>
2022.2.0

> <Gold.Id.Protein>
1qkm|1qkm_protein|mol2

> <Gold.Protein.RotatedTorsions>
[  496  491  490  487 ] final -120.13 input  -89.99 | X-H torsion

> <Gold.Protein.ActiveResidues>
 MET295  LEU298  THR299  LEU301  ALA302  GLU305  TRP335  MET336  LEU339  MET340 
 GLY342  LEU343  ARG346  PHE356  ILE373  ILE376  PHE377  LEU380  LYS471  GLY472 
 MET473  HIS475  LEU476  LEU477  ASN478  MET479  VAL484  VAL487 

> <Gold.Protein.RotatedAtoms>
   37.0272   34.3544   40.7996 H   0  0  0  0  0  0  0  0  0  0  0  0  # atno 496  bound_to 491 

> <Gold.Score>
     Score     S(PLP)   S(hbond)     S(cho)   S(metal)  DE(clash)   DE(tors)     intcor
     38.69     -38.80       0.00       0.00       0.00       0.00       0.06       0.00

> <Gold.PLP.Fitness>
38.6886

> <Gold.PLP.PLP>
-38.8016

> <Gold.PLP.part.hbond>
0.0000

> <Gold.PLP.part.metal>
0.0000

> <Gold.PLP.part.buried>
-2.9320

> <Gold.PLP.part.nonpolar>
-36.5027

> <Gold.PLP.part.repulsive>
0.0412

> <Gold.PLP.ligand.clash>
0.0000

> <Gold.PLP.ligand.torsion>
0.0565

> <Gold.PLP.Chemscore.Hbond>
0.0000

> <Gold.PLP.Chemscore.CHOScore>
0.0000

> <Gold.PLP.Chemscore.Metal>
0.0000

> <Gold.PLP.Chemscore.Internal.Correction>
0.0000

