#       Name:                EN300-41936_i001
#       Creating user name   aseyller
#       Creation time:       Fri Apr 21 17:14:47 2023


#       File generated by GOLD software.
#

@<TRIPOS>MOLECULE
EN300-41936_i001|benzaldehydes|mol2|210|dock13
    29    29     1
SMALL
USER_CHARGES


@<TRIPOS>ATOM
      1 C1          30.7832  39.3104  36.4109 C.3            1 <1>                0.0000
      2 C2          30.4563  38.1399  37.3021 C.2            1 <1>                0.0000
      3 N3          29.3360  37.9533  37.9423 N.2            1 <1>                0.0000
      4 N4          29.4160  36.7555  38.6609 N.pl3          1 <1>                0.0000
      5 C5          30.6208  36.2070  38.4453 C.2            1 <1>                0.0000
      6 C6          31.1288  34.9124  39.0255 C.3            1 <1>                0.0000
      7 C7          31.3094  37.0467  37.5864 C.2            1 <1>                0.0000
      8 C8          32.6697  36.8465  37.0757 C.2            1 <1>                0.0000
      9 O9          33.1699  35.7416  37.0992 O.2            1 <1>                0.0000
     10 C10         28.3604  36.1945  39.5077 C.3            1 <1>                0.0000
     11 C11         28.1135  34.7362  39.1162 C.3            1 <1>                0.0000
     12 C12         28.7924  36.2628  40.9739 C.3            1 <1>                0.0000
     13 C13         27.0726  36.9985  39.3176 C.3            1 <1>                0.0000
     14 H14         31.2393  40.1027  37.0044 H              1 <1>                0.0000
     15 H15         31.4782  38.9924  35.6338 H              1 <1>                0.0000
     16 H16         29.8683  39.6826  35.9500 H              1 <1>                0.0000
     17 H17         30.9560  34.1034  38.3157 H              1 <1>                0.0000
     18 H18         32.1968  34.9982  39.2257 H              1 <1>                0.0000
     19 H19         30.6010  34.6989  39.9550 H              1 <1>                0.0000
     20 H20         33.2260  37.6829  36.6789 H              1 <1>                0.0000
     21 H21         29.0308  34.1633  39.2518 H              1 <1>                0.0000
     22 H22         27.3281  34.3188  39.7464 H              1 <1>                0.0000
     23 H23         27.8057  34.6875  38.0718 H              1 <1>                0.0000
     24 H24         28.9683  37.3018  41.2528 H              1 <1>                0.0000
     25 H25         28.0070  35.8454  41.6040 H              1 <1>                0.0000
     26 H26         29.7098  35.6900  41.1094 H              1 <1>                0.0000
     27 H27         26.7181  36.8800  38.2936 H              1 <1>                0.0000
     28 H28         26.3124  36.6362  40.0095 H              1 <1>                0.0000
     29 H29         27.2700  38.0524  39.5140 H              1 <1>                0.0000
@<TRIPOS>BOND
    1    1    2 1     
    2    1   14 1     
    3    1   15 1     
    4    1   16 1     
    5    2    3 2     
    6    2    7 1     
    7    3    4 1     
    8    4    5 1     
    9    4   10 1     
   10    5    6 1     
   11    5    7 2     
   12    6   17 1     
   13    6   18 1     
   14    6   19 1     
   15    7    8 1     
   16    8    9 2     
   17    8   20 1     
   18   10   11 1     
   19   10   12 1     
   20   10   13 1     
   21   11   21 1     
   22   11   22 1     
   23   11   23 1     
   24   12   24 1     
   25   12   25 1     
   26   12   26 1     
   27   13   27 1     
   28   13   28 1     
   29   13   29 1     
@<TRIPOS>SUBSTRUCTURE
      1 ****           1
@<TRIPOS>COMMENT
> <Gold.Version>
2022.2.0

> <Gold.Id.Protein>
1qkm|1qkm_protein|mol2

> <Gold.Protein.RotatedTorsions>
[  496  491  490  487 ] final  -30.03 input  -89.99 | X-H torsion

> <Gold.Protein.ActiveResidues>
 MET295  LEU298  THR299  LEU301  ALA302  GLU305  TRP335  MET336  LEU339  MET340 
 GLY342  LEU343  ARG346  PHE356  ILE373  ILE376  PHE377  LEU380  LYS471  GLY472 
 MET473  HIS475  LEU476  LEU477  ASN478  MET479  VAL484  VAL487 

> <Gold.Protein.RotatedAtoms>
   36.3150   34.5714   41.9077 H   0  0  0  0  0  0  0  0  0  0  0  0  # atno 496  bound_to 491 

> <Gold.Score>
     Score     S(PLP)   S(hbond)     S(cho)   S(metal)  DE(clash)   DE(tors)     intcor
     39.17     -39.78       0.00       0.00       0.00       0.00       0.31       0.00

> <Gold.PLP.Fitness>
39.1653

> <Gold.PLP.PLP>
-39.7794

> <Gold.PLP.part.hbond>
0.0000

> <Gold.PLP.part.metal>
0.0000

> <Gold.PLP.part.buried>
-1.9184

> <Gold.PLP.part.nonpolar>
-38.5398

> <Gold.PLP.part.repulsive>
0.0000

> <Gold.PLP.ligand.clash>
0.0000

> <Gold.PLP.ligand.torsion>
0.3070

> <Gold.PLP.Chemscore.Hbond>
0.0000

> <Gold.PLP.Chemscore.CHOScore>
0.0000

> <Gold.PLP.Chemscore.Metal>
0.0000

> <Gold.PLP.Chemscore.Internal.Correction>
0.0000

