#       Name:                EN300-41936_i001
#       Creating user name   aseyller
#       Creation time:       Fri Apr 21 17:14:46 2023


#       File generated by GOLD software.
#

@<TRIPOS>MOLECULE
EN300-41936_i001|benzaldehydes|mol2|210|dock11
    29    29     1
SMALL
USER_CHARGES


@<TRIPOS>ATOM
      1 C1          31.7991  34.1890  38.8023 C.3            1 <1>                0.0000
      2 C2          31.2595  35.4459  38.1698 C.2            1 <1>                0.0000
      3 N3          31.7882  36.0861  37.1647 N.2            1 <1>                0.0000
      4 N4          30.9974  37.2016  36.8682 N.pl3          1 <1>                0.0000
      5 C5          29.9630  37.2314  37.7215 C.2            1 <1>                0.0000
      6 C6          28.8657  38.2636  37.7580 C.3            1 <1>                0.0000
      7 C7          30.0861  36.1355  38.5586 C.2            1 <1>                0.0000
      8 C8          29.1778  35.7648  39.6490 C.2            1 <1>                0.0000
      9 O9          28.2167  36.4608  39.9009 O.2            1 <1>                0.0000
     10 C10         31.2563  38.1746  35.8041 C.3            1 <1>                0.0000
     11 C11         30.1558  38.0776  34.7456 C.3            1 <1>                0.0000
     12 C12         31.2719  39.5855  36.3958 C.3            1 <1>                0.0000
     13 C13         32.6116  37.8769  35.1595 C.3            1 <1>                0.0000
     14 H14         32.4840  34.4530  39.6082 H              1 <1>                0.0000
     15 H15         30.9739  33.6015  39.2046 H              1 <1>                0.0000
     16 H16         32.3299  33.6035  38.0517 H              1 <1>                0.0000
     17 H17         28.0093  37.9039  37.1877 H              1 <1>                0.0000
     18 H18         28.5663  38.4393  38.7913 H              1 <1>                0.0000
     19 H19         29.2278  39.1944  37.3214 H              1 <1>                0.0000
     20 H20         29.3648  34.8723  40.2277 H              1 <1>                0.0000
     21 H21         29.1903  38.2898  35.2047 H              1 <1>                0.0000
     22 H22         30.3485  38.8017  33.9539 H              1 <1>                0.0000
     23 H23         30.1447  37.0726  34.3240 H              1 <1>                0.0000
     24 H24         32.0559  39.6545  37.1499 H              1 <1>                0.0000
     25 H25         31.4645  40.3095  35.6041 H              1 <1>                0.0000
     26 H26         30.3064  39.7975  36.8551 H              1 <1>                0.0000
     27 H27         32.5730  36.9069  34.6638 H              1 <1>                0.0000
     28 H28         32.8433  38.6502  34.4271 H              1 <1>                0.0000
     29 H29         33.3841  37.8615  35.9284 H              1 <1>                0.0000
@<TRIPOS>BOND
    1    1    2 1     
    2    1   14 1     
    3    1   15 1     
    4    1   16 1     
    5    2    3 2     
    6    2    7 1     
    7    3    4 1     
    8    4    5 1     
    9    4   10 1     
   10    5    6 1     
   11    5    7 2     
   12    6   17 1     
   13    6   18 1     
   14    6   19 1     
   15    7    8 1     
   16    8    9 2     
   17    8   20 1     
   18   10   11 1     
   19   10   12 1     
   20   10   13 1     
   21   11   21 1     
   22   11   22 1     
   23   11   23 1     
   24   12   24 1     
   25   12   25 1     
   26   12   26 1     
   27   13   27 1     
   28   13   28 1     
   29   13   29 1     
@<TRIPOS>SUBSTRUCTURE
      1 ****           1
@<TRIPOS>COMMENT
> <Gold.Version>
2022.2.0

> <Gold.Id.Protein>
1qkm|1qkm_protein|mol2

> <Gold.Protein.RotatedTorsions>
[  496  491  490  487 ] final  127.52 input  -89.99 | X-H torsion

> <Gold.Protein.ActiveResidues>
 MET295  LEU298  THR299  LEU301  ALA302  GLU305  TRP335  MET336  LEU339  MET340 
 GLY342  LEU343  ARG346  PHE356  ILE373  ILE376  PHE377  LEU380  LYS471  GLY472 
 MET473  HIS475  LEU476  LEU477  ASN478  MET479  VAL484  VAL487 

> <Gold.Protein.RotatedAtoms>
   37.1360   32.9617   41.5097 H   0  0  0  0  0  0  0  0  0  0  0  0  # atno 496  bound_to 491 

> <Gold.Score>
     Score     S(PLP)   S(hbond)     S(cho)   S(metal)  DE(clash)   DE(tors)     intcor
     38.22     -38.46       0.00       0.00       0.00       0.00       0.12       0.00

> <Gold.PLP.Fitness>
38.2177

> <Gold.PLP.PLP>
-38.4559

> <Gold.PLP.part.hbond>
0.0000

> <Gold.PLP.part.metal>
0.0000

> <Gold.PLP.part.buried>
-2.8348

> <Gold.PLP.part.nonpolar>
-35.7656

> <Gold.PLP.part.repulsive>
0.0343

> <Gold.PLP.ligand.clash>
0.0000

> <Gold.PLP.ligand.torsion>
0.1191

> <Gold.PLP.Chemscore.Hbond>
0.0000

> <Gold.PLP.Chemscore.CHOScore>
0.0000

> <Gold.PLP.Chemscore.Metal>
0.0000

> <Gold.PLP.Chemscore.Internal.Correction>
0.0000

