#       Name:                EN300-41936_i001
#       Creating user name   aseyller
#       Creation time:       Fri Apr 21 17:14:50 2023


#       File generated by GOLD software.
#

@<TRIPOS>MOLECULE
EN300-41936_i001|benzaldehydes|mol2|210|dock19
    29    29     1
SMALL
USER_CHARGES


@<TRIPOS>ATOM
      1 C1          31.7606  36.9498  37.8982 C.3            1 <1>                0.0000
      2 C2          30.2724  37.1396  38.0409 C.2            1 <1>                0.0000
      3 N3          29.4861  36.4655  38.8326 N.2            1 <1>                0.0000
      4 N4          28.1763  36.9331  38.6803 N.pl3          1 <1>                0.0000
      5 C5          28.1769  37.9175  37.7693 C.2            1 <1>                0.0000
      6 C6          26.9778  38.7009  37.3011 C.3            1 <1>                0.0000
      7 C7          29.4835  38.0854  37.3432 C.2            1 <1>                0.0000
      8 C8          29.9588  39.0535  36.3490 C.2            1 <1>                0.0000
      9 O9          31.1359  39.0968  36.0592 O.2            1 <1>                0.0000
     10 C10         27.0006  36.4309  39.3956 C.3            1 <1>                0.0000
     11 C11         26.1001  35.6662  38.4233 C.3            1 <1>                0.0000
     12 C12         27.4489  35.4944  40.5194 C.3            1 <1>                0.0000
     13 C13         26.2249  37.6075  39.9912 C.3            1 <1>                0.0000
     14 H14         31.9601  36.2150  37.1183 H              1 <1>                0.0000
     15 H15         32.2239  37.8992  37.6299 H              1 <1>                0.0000
     16 H16         32.1742  36.5979  38.8433 H              1 <1>                0.0000
     17 H17         26.9014  39.6253  37.8736 H              1 <1>                0.0000
     18 H18         27.0887  38.9371  36.2428 H              1 <1>                0.0000
     19 H19         26.0757  38.1070  37.4482 H              1 <1>                0.0000
     20 H20         29.2607  39.7278  35.8753 H              1 <1>                0.0000
     21 H21         26.6527  34.8279  37.9991 H              1 <1>                0.0000
     22 H22         25.2254  35.2926  38.9556 H              1 <1>                0.0000
     23 H23         25.7808  36.3333  37.6228 H              1 <1>                0.0000
     24 H24         28.0904  36.0392  41.2121 H              1 <1>                0.0000
     25 H25         26.5742  35.1207  41.0517 H              1 <1>                0.0000
     26 H26         28.0015  34.6561  40.0951 H              1 <1>                0.0000
     27 H27         25.8323  38.2287  39.1862 H              1 <1>                0.0000
     28 H28         25.3993  37.2303  40.5946 H              1 <1>                0.0000
     29 H29         26.8905  38.2018  40.6173 H              1 <1>                0.0000
@<TRIPOS>BOND
    1    1    2 1     
    2    1   14 1     
    3    1   15 1     
    4    1   16 1     
    5    2    3 2     
    6    2    7 1     
    7    3    4 1     
    8    4    5 1     
    9    4   10 1     
   10    5    6 1     
   11    5    7 2     
   12    6   17 1     
   13    6   18 1     
   14    6   19 1     
   15    7    8 1     
   16    8    9 2     
   17    8   20 1     
   18   10   11 1     
   19   10   12 1     
   20   10   13 1     
   21   11   21 1     
   22   11   22 1     
   23   11   23 1     
   24   12   24 1     
   25   12   25 1     
   26   12   26 1     
   27   13   27 1     
   28   13   28 1     
   29   13   29 1     
@<TRIPOS>SUBSTRUCTURE
      1 ****           1
@<TRIPOS>COMMENT
> <Gold.Version>
2022.2.0

> <Gold.Id.Protein>
1qkm|1qkm_protein|mol2

> <Gold.Protein.RotatedTorsions>
[  496  491  490  487 ] final -109.91 input  -89.99 | X-H torsion

> <Gold.Protein.ActiveResidues>
 MET295  LEU298  THR299  LEU301  ALA302  GLU305  TRP335  MET336  LEU339  MET340 
 GLY342  LEU343  ARG346  PHE356  ILE373  ILE376  PHE377  LEU380  LYS471  GLY472 
 MET473  HIS475  LEU476  LEU477  ASN478  MET479  VAL484  VAL487 

> <Gold.Protein.RotatedAtoms>
   36.9394   34.4765   40.8745 H   0  0  0  0  0  0  0  0  0  0  0  0  # atno 496  bound_to 491 

> <Gold.Score>
     Score     S(PLP)   S(hbond)     S(cho)   S(metal)  DE(clash)   DE(tors)     intcor
     36.72     -37.30       0.00       0.00       0.00       0.00       0.29       0.00

> <Gold.PLP.Fitness>
36.7174

> <Gold.PLP.PLP>
-37.3018

> <Gold.PLP.part.hbond>
0.0000

> <Gold.PLP.part.metal>
0.0000

> <Gold.PLP.part.buried>
-3.0820

> <Gold.PLP.part.nonpolar>
-34.0322

> <Gold.PLP.part.repulsive>
0.0397

> <Gold.PLP.ligand.clash>
0.0030

> <Gold.PLP.ligand.torsion>
0.2907

> <Gold.PLP.Chemscore.Hbond>
0.0000

> <Gold.PLP.Chemscore.CHOScore>
0.0000

> <Gold.PLP.Chemscore.Metal>
0.0000

> <Gold.PLP.Chemscore.Internal.Correction>
0.0000

