#       Name:                EN300-41936_i001
#       Creating user name   aseyller
#       Creation time:       Fri Apr 21 17:14:43 2023


#       File generated by GOLD software.
#

@<TRIPOS>MOLECULE
EN300-41936_i001|benzaldehydes|mol2|210|dock4
    29    29     1
SMALL
USER_CHARGES


@<TRIPOS>ATOM
      1 C1          27.4323  37.0181  38.4625 C.3            1 <1>                0.0000
      2 C2          28.8399  37.0531  37.9252 C.2            1 <1>                0.0000
      3 N3          29.7035  36.0777  37.9744 N.2            1 <1>                0.0000
      4 N4          30.8958  36.4940  37.3722 N.pl3          1 <1>                0.0000
      5 C5          30.7427  37.7575  36.9490 C.2            1 <1>                0.0000
      6 C6          31.7791  38.5947  36.2449 C.3            1 <1>                0.0000
      7 C7          29.4546  38.1486  37.2728 C.2            1 <1>                0.0000
      8 C8          28.8455  39.4548  37.0006 C.2            1 <1>                0.0000
      9 O9          29.4554  40.2875  36.3633 O.2            1 <1>                0.0000
     10 C10         32.1088  35.6853  37.2285 C.3            1 <1>                0.0000
     11 C11         33.2822  36.4021  37.8996 C.3            1 <1>                0.0000
     12 C12         31.8956  34.3236  37.8928 C.3            1 <1>                0.0000
     13 C13         32.4156  35.4855  35.7429 C.3            1 <1>                0.0000
     14 H14         27.4307  37.3549  39.4991 H              1 <1>                0.0000
     15 H15         26.7993  37.6750  37.8660 H              1 <1>                0.0000
     16 H16         27.0490  35.9991  38.4110 H              1 <1>                0.0000
     17 H17         31.6329  38.5234  35.1671 H              1 <1>                0.0000
     18 H18         31.6798  39.6343  36.5571 H              1 <1>                0.0000
     19 H19         32.7745  38.2319  36.5011 H              1 <1>                0.0000
     20 H20         27.8540  39.6753  37.3678 H              1 <1>                0.0000
     21 H21         33.0637  36.5444  38.9579 H              1 <1>                0.0000
     22 H22         34.1847  35.8003  37.7927 H              1 <1>                0.0000
     23 H23         33.4340  37.3720  37.4263 H              1 <1>                0.0000
     24 H24         31.0597  33.8130  37.4147 H              1 <1>                0.0000
     25 H25         32.7981  33.7218  37.7859 H              1 <1>                0.0000
     26 H26         31.6771  34.4659  38.9512 H              1 <1>                0.0000
     27 H27         32.6516  36.4475  35.2880 H              1 <1>                0.0000
     28 H28         33.2671  34.8138  35.6348 H              1 <1>                0.0000
     29 H29         31.5464  35.0527  35.2474 H              1 <1>                0.0000
@<TRIPOS>BOND
    1    1    2 1     
    2    1   14 1     
    3    1   15 1     
    4    1   16 1     
    5    2    3 2     
    6    2    7 1     
    7    3    4 1     
    8    4    5 1     
    9    4   10 1     
   10    5    6 1     
   11    5    7 2     
   12    6   17 1     
   13    6   18 1     
   14    6   19 1     
   15    7    8 1     
   16    8    9 2     
   17    8   20 1     
   18   10   11 1     
   19   10   12 1     
   20   10   13 1     
   21   11   21 1     
   22   11   22 1     
   23   11   23 1     
   24   12   24 1     
   25   12   25 1     
   26   12   26 1     
   27   13   27 1     
   28   13   28 1     
   29   13   29 1     
@<TRIPOS>SUBSTRUCTURE
      1 ****           1
@<TRIPOS>COMMENT
> <Gold.Version>
2022.2.0

> <Gold.Id.Protein>
1qkm|1qkm_protein|mol2

> <Gold.Protein.RotatedTorsions>
[  496  491  490  487 ] final -138.53 input  -89.99 | X-H torsion

> <Gold.Protein.ActiveResidues>
 MET295  LEU298  THR299  LEU301  ALA302  GLU305  TRP335  MET336  LEU339  MET340 
 GLY342  LEU343  ARG346  PHE356  ILE373  ILE376  PHE377  LEU380  LYS471  GLY472 
 MET473  HIS475  LEU476  LEU477  ASN478  MET479  VAL484  VAL487 

> <Gold.Protein.RotatedAtoms>
   37.1644   34.0960   40.7261 H   0  0  0  0  0  0  0  0  0  0  0  0  # atno 496  bound_to 491 

> <Gold.Score>
     Score     S(PLP)   S(hbond)     S(cho)   S(metal)  DE(clash)   DE(tors)     intcor
     39.66     -39.71       0.00       0.00       0.00       0.00       0.02       0.00

> <Gold.PLP.Fitness>
39.6622

> <Gold.PLP.PLP>
-39.7070

> <Gold.PLP.part.hbond>
0.0000

> <Gold.PLP.part.metal>
0.0000

> <Gold.PLP.part.buried>
-2.7637

> <Gold.PLP.part.nonpolar>
-37.1730

> <Gold.PLP.part.repulsive>
0.0122

> <Gold.PLP.ligand.clash>
0.0000

> <Gold.PLP.ligand.torsion>
0.0224

> <Gold.PLP.Chemscore.Hbond>
0.0000

> <Gold.PLP.Chemscore.CHOScore>
0.0000

> <Gold.PLP.Chemscore.Metal>
0.0000

> <Gold.PLP.Chemscore.Internal.Correction>
0.0000

