#       Name:                EN300-41936_i001
#       Creating user name   aseyller
#       Creation time:       Fri Apr 21 17:14:44 2023


#       File generated by GOLD software.
#

@<TRIPOS>MOLECULE
EN300-41936_i001|benzaldehydes|mol2|210|dock5
    29    29     1
SMALL
USER_CHARGES


@<TRIPOS>ATOM
      1 C1          28.3953  35.5628  41.6028 C.3            1 <1>                0.0000
      2 C2          28.4403  36.3392  40.3119 C.2            1 <1>                0.0000
      3 N3          29.4985  36.5483  39.5797 N.2            1 <1>                0.0000
      4 N4          29.1366  37.3096  38.4630 N.pl3          1 <1>                0.0000
      5 C5          27.8215  37.5650  38.5274 C.2            1 <1>                0.0000
      6 C6          27.0156  38.3542  37.5281 C.3            1 <1>                0.0000
      7 C7          27.3398  36.9644  39.6781 C.2            1 <1>                0.0000
      8 C8          25.9530  36.9815  40.1556 C.2            1 <1>                0.0000
      9 O9          25.6627  36.4285  41.1955 O.2            1 <1>                0.0000
     10 C10         30.0429  37.7540  37.4013 C.3            1 <1>                0.0000
     11 C11         30.0048  39.2804  37.3039 C.3            1 <1>                0.0000
     12 C12         31.4678  37.2989  37.7232 C.3            1 <1>                0.0000
     13 C13         29.6028  37.1468  36.0676 C.3            1 <1>                0.0000
     14 H14         28.5771  36.2377  42.4392 H              1 <1>                0.0000
     15 H15         27.4144  35.1010  41.7151 H              1 <1>                0.0000
     16 H16         29.1620  34.7882  41.5878 H              1 <1>                0.0000
     17 H17         26.5529  37.6723  36.8147 H              1 <1>                0.0000
     18 H18         26.2404  38.9160  38.0491 H              1 <1>                0.0000
     19 H19         27.6708  39.0453  36.9977 H              1 <1>                0.0000
     20 H20         25.1903  37.4862  39.5811 H              1 <1>                0.0000
     21 H21         30.3185  39.7131  38.2539 H              1 <1>                0.0000
     22 H22         30.6792  39.6111  36.5140 H              1 <1>                0.0000
     23 H23         28.9898  39.6046  37.0745 H              1 <1>                0.0000
     24 H24         31.4949  36.2115  37.7925 H              1 <1>                0.0000
     25 H25         32.1421  37.6296  36.9333 H              1 <1>                0.0000
     26 H26         31.7814  37.7315  38.6733 H              1 <1>                0.0000
     27 H27         28.6223  37.5383  35.7962 H              1 <1>                0.0000
     28 H28         30.3249  37.4072  35.2938 H              1 <1>                0.0000
     29 H29         29.5474  36.0624  36.1628 H              1 <1>                0.0000
@<TRIPOS>BOND
    1    1    2 1     
    2    1   14 1     
    3    1   15 1     
    4    1   16 1     
    5    2    3 2     
    6    2    7 1     
    7    3    4 1     
    8    4    5 1     
    9    4   10 1     
   10    5    6 1     
   11    5    7 2     
   12    6   17 1     
   13    6   18 1     
   14    6   19 1     
   15    7    8 1     
   16    8    9 2     
   17    8   20 1     
   18   10   11 1     
   19   10   12 1     
   20   10   13 1     
   21   11   21 1     
   22   11   22 1     
   23   11   23 1     
   24   12   24 1     
   25   12   25 1     
   26   12   26 1     
   27   13   27 1     
   28   13   28 1     
   29   13   29 1     
@<TRIPOS>SUBSTRUCTURE
      1 ****           1
@<TRIPOS>COMMENT
> <Gold.Version>
2022.2.0

> <Gold.Id.Protein>
1qkm|1qkm_protein|mol2

> <Gold.Protein.RotatedTorsions>
[  496  491  490  487 ] final -124.68 input  -89.99 | X-H torsion

> <Gold.Protein.ActiveResidues>
 MET295  LEU298  THR299  LEU301  ALA302  GLU305  TRP335  MET336  LEU339  MET340 
 GLY342  LEU343  ARG346  PHE356  ILE373  ILE376  PHE377  LEU380  LYS471  GLY472 
 MET473  HIS475  LEU476  LEU477  ASN478  MET479  VAL484  VAL487 

> <Gold.Protein.RotatedAtoms>
   37.0640   34.2944   40.7738 H   0  0  0  0  0  0  0  0  0  0  0  0  # atno 496  bound_to 491 

> <Gold.Score>
     Score     S(PLP)   S(hbond)     S(cho)   S(metal)  DE(clash)   DE(tors)     intcor
     40.26     -40.29       0.00       0.00       0.00       0.00       0.01       0.00

> <Gold.PLP.Fitness>
40.2614

> <Gold.PLP.PLP>
-40.2866

> <Gold.PLP.part.hbond>
0.0000

> <Gold.PLP.part.metal>
0.0000

> <Gold.PLP.part.buried>
-3.5709

> <Gold.PLP.part.nonpolar>
-37.3052

> <Gold.PLP.part.repulsive>
0.2847

> <Gold.PLP.ligand.clash>
0.0000

> <Gold.PLP.ligand.torsion>
0.0126

> <Gold.PLP.Chemscore.Hbond>
0.0000

> <Gold.PLP.Chemscore.CHOScore>
0.0000

> <Gold.PLP.Chemscore.Metal>
0.0000

> <Gold.PLP.Chemscore.Internal.Correction>
0.0000

