#       Name:                EN300-41936_i001
#       Creating user name   aseyller
#       Creation time:       Fri Apr 21 17:14:48 2023


#       File generated by GOLD software.
#

@<TRIPOS>MOLECULE
EN300-41936_i001|benzaldehydes|mol2|210|dock15
    29    29     1
SMALL
USER_CHARGES


@<TRIPOS>ATOM
      1 C1          29.1130  39.9436  36.0787 C.3            1 <1>                0.0000
      2 C2          28.9581  38.7845  37.0294 C.2            1 <1>                0.0000
      3 N3          27.8529  38.4150  37.6138 N.2            1 <1>                0.0000
      4 N4          28.1136  37.3006  38.4185 N.pl3          1 <1>                0.0000
      5 C5          29.4148  36.9924  38.3137 C.2            1 <1>                0.0000
      6 C6          30.1230  35.8607  39.0127 C.3            1 <1>                0.0000
      7 C7          29.9858  37.9019  37.4399 C.2            1 <1>                0.0000
      8 C8          31.3921  37.9485  37.0258 C.2            1 <1>                0.0000
      9 O9          31.7516  38.7491  36.1883 O.2            1 <1>                0.0000
     10 C10         27.1300  36.5896  39.2390 C.3            1 <1>                0.0000
     11 C11         25.8020  37.3490  39.2156 C.3            1 <1>                0.0000
     12 C12         26.9218  35.1809  38.6793 C.3            1 <1>                0.0000
     13 C13         27.6388  36.4963  40.6789 C.3            1 <1>                0.0000
     14 H14         29.3616  40.8438  36.6408 H              1 <1>                0.0000
     15 H15         29.9108  39.7269  35.3684 H              1 <1>                0.0000
     16 H16         28.1785  40.0986  35.5395 H              1 <1>                0.0000
     17 H17         30.1632  34.9942  38.3527 H              1 <1>                0.0000
     18 H18         31.1365  36.1695  39.2690 H              1 <1>                0.0000
     19 H19         29.5817  35.5999  39.9222 H              1 <1>                0.0000
     20 H20         32.1075  37.2698  37.4664 H              1 <1>                0.0000
     21 H21         25.4394  37.4155  38.1899 H              1 <1>                0.0000
     22 H22         25.0701  36.8200  39.8260 H              1 <1>                0.0000
     23 H23         25.9503  38.3525  39.6143 H              1 <1>                0.0000
     24 H24         27.8679  34.6398  38.6960 H              1 <1>                0.0000
     25 H25         26.1899  34.6518  39.2898 H              1 <1>                0.0000
     26 H26         26.5593  35.2474  37.6535 H              1 <1>                0.0000
     27 H27         27.7055  37.4968  41.1062 H              1 <1>                0.0000
     28 H28         26.9488  35.8940  41.2698 H              1 <1>                0.0000
     29 H29         28.6248  36.0315  40.6864 H              1 <1>                0.0000
@<TRIPOS>BOND
    1    1    2 1     
    2    1   14 1     
    3    1   15 1     
    4    1   16 1     
    5    2    3 2     
    6    2    7 1     
    7    3    4 1     
    8    4    5 1     
    9    4   10 1     
   10    5    6 1     
   11    5    7 2     
   12    6   17 1     
   13    6   18 1     
   14    6   19 1     
   15    7    8 1     
   16    8    9 2     
   17    8   20 1     
   18   10   11 1     
   19   10   12 1     
   20   10   13 1     
   21   11   21 1     
   22   11   22 1     
   23   11   23 1     
   24   12   24 1     
   25   12   25 1     
   26   12   26 1     
   27   13   27 1     
   28   13   28 1     
   29   13   29 1     
@<TRIPOS>SUBSTRUCTURE
      1 ****           1
@<TRIPOS>COMMENT
> <Gold.Version>
2022.2.0

> <Gold.Id.Protein>
1qkm|1qkm_protein|mol2

> <Gold.Protein.RotatedTorsions>
[  496  491  490  487 ] final   42.38 input  -89.99 | X-H torsion

> <Gold.Protein.ActiveResidues>
 MET295  LEU298  THR299  LEU301  ALA302  GLU305  TRP335  MET336  LEU339  MET340 
 GLY342  LEU343  ARG346  PHE356  ILE373  ILE376  PHE377  LEU380  LYS471  GLY472 
 MET473  HIS475  LEU476  LEU477  ASN478  MET479  VAL484  VAL487 

> <Gold.Protein.RotatedAtoms>
   36.4192   33.5656   42.3757 H   0  0  0  0  0  0  0  0  0  0  0  0  # atno 496  bound_to 491 

> <Gold.Score>
     Score     S(PLP)   S(hbond)     S(cho)   S(metal)  DE(clash)   DE(tors)     intcor
     37.87     -38.14       0.00       0.00       0.00       0.00       0.14       0.00

> <Gold.PLP.Fitness>
37.8672

> <Gold.PLP.PLP>
-38.1444

> <Gold.PLP.part.hbond>
0.0000

> <Gold.PLP.part.metal>
0.0000

> <Gold.PLP.part.buried>
-1.1829

> <Gold.PLP.part.nonpolar>
-37.3720

> <Gold.PLP.part.repulsive>
0.0000

> <Gold.PLP.ligand.clash>
0.0000

> <Gold.PLP.ligand.torsion>
0.1387

> <Gold.PLP.Chemscore.Hbond>
0.0000

> <Gold.PLP.Chemscore.CHOScore>
0.0000

> <Gold.PLP.Chemscore.Metal>
0.0000

> <Gold.PLP.Chemscore.Internal.Correction>
0.0000

