#       Name:                EN300-41936_i001
#       Creating user name   aseyller
#       Creation time:       Fri Apr 21 17:14:44 2023


#       File generated by GOLD software.
#

@<TRIPOS>MOLECULE
EN300-41936_i001|benzaldehydes|mol2|210|dock6
    29    29     1
SMALL
USER_CHARGES


@<TRIPOS>ATOM
      1 C1          26.9242  37.5452  38.5012 C.3            1 <1>                0.0000
      2 C2          28.3509  37.2624  38.1065 C.2            1 <1>                0.0000
      3 N3          28.9362  37.6592  37.0113 N.2            1 <1>                0.0000
      4 N4          30.2573  37.1984  37.0081 N.pl3          1 <1>                0.0000
      5 C5          30.4708  36.5041  38.1357 C.2            1 <1>                0.0000
      6 C6          31.7575  35.8317  38.5396 C.3            1 <1>                0.0000
      7 C7          29.2928  36.5245  38.8628 C.2            1 <1>                0.0000
      8 C8          29.0614  35.8922  40.1659 C.2            1 <1>                0.0000
      9 O9          27.9915  36.0234  40.7224 O.2            1 <1>                0.0000
     10 C10         31.2425  37.4344  35.9499 C.3            1 <1>                0.0000
     11 C11         32.3924  38.2788  36.5026 C.3            1 <1>                0.0000
     12 C12         31.7873  36.0941  35.4522 C.3            1 <1>                0.0000
     13 C13         30.5766  38.1767  34.7895 C.3            1 <1>                0.0000
     14 H14         26.2788  36.7521  38.1236 H              1 <1>                0.0000
     15 H15         26.8494  37.5881  39.5877 H              1 <1>                0.0000
     16 H16         26.6125  38.4998  38.0774 H              1 <1>                0.0000
     17 H17         32.3283  36.4980  39.1864 H              1 <1>                0.0000
     18 H18         31.5328  34.9095  39.0756 H              1 <1>                0.0000
     19 H19         32.3421  35.6011  37.6490 H              1 <1>                0.0000
     20 H20         29.8438  35.3099  40.6300 H              1 <1>                0.0000
     21 H21         32.8669  37.7499  37.3292 H              1 <1>                0.0000
     22 H22         33.1254  38.4542  35.7152 H              1 <1>                0.0000
     23 H23         32.0043  39.2335  36.8571 H              1 <1>                0.0000
     24 H24         30.9680  35.4925  35.0584 H              1 <1>                0.0000
     25 H25         32.5203  36.2695  34.6648 H              1 <1>                0.0000
     26 H26         32.2617  35.5652  36.2788 H              1 <1>                0.0000
     27 H27         30.2647  39.1666  35.1227 H              1 <1>                0.0000
     28 H28         31.2855  38.2767  33.9675 H              1 <1>                0.0000
     29 H29         29.7052  37.6158  34.4515 H              1 <1>                0.0000
@<TRIPOS>BOND
    1    1    2 1     
    2    1   14 1     
    3    1   15 1     
    4    1   16 1     
    5    2    3 2     
    6    2    7 1     
    7    3    4 1     
    8    4    5 1     
    9    4   10 1     
   10    5    6 1     
   11    5    7 2     
   12    6   17 1     
   13    6   18 1     
   14    6   19 1     
   15    7    8 1     
   16    8    9 2     
   17    8   20 1     
   18   10   11 1     
   19   10   12 1     
   20   10   13 1     
   21   11   21 1     
   22   11   22 1     
   23   11   23 1     
   24   12   24 1     
   25   12   25 1     
   26   12   26 1     
   27   13   27 1     
   28   13   28 1     
   29   13   29 1     
@<TRIPOS>SUBSTRUCTURE
      1 ****           1
@<TRIPOS>COMMENT
> <Gold.Version>
2022.2.0

> <Gold.Id.Protein>
1qkm|1qkm_protein|mol2

> <Gold.Protein.RotatedTorsions>
[  496  491  490  487 ] final -109.28 input  -89.99 | X-H torsion

> <Gold.Protein.ActiveResidues>
 MET295  LEU298  THR299  LEU301  ALA302  GLU305  TRP335  MET336  LEU339  MET340 
 GLY342  LEU343  ARG346  PHE356  ILE373  ILE376  PHE377  LEU380  LYS471  GLY472 
 MET473  HIS475  LEU476  LEU477  ASN478  MET479  VAL484  VAL487 

> <Gold.Protein.RotatedAtoms>
   36.9338   34.4835   40.8798 H   0  0  0  0  0  0  0  0  0  0  0  0  # atno 496  bound_to 491 

> <Gold.Score>
     Score     S(PLP)   S(hbond)     S(cho)   S(metal)  DE(clash)   DE(tors)     intcor
     38.22     -38.34       0.00       0.00       0.00       0.00       0.06       0.00

> <Gold.PLP.Fitness>
38.2194

> <Gold.PLP.PLP>
-38.3361

> <Gold.PLP.part.hbond>
0.0000

> <Gold.PLP.part.metal>
0.0000

> <Gold.PLP.part.buried>
-3.1291

> <Gold.PLP.part.nonpolar>
-35.1817

> <Gold.PLP.part.repulsive>
0.1003

> <Gold.PLP.ligand.clash>
0.0000

> <Gold.PLP.ligand.torsion>
0.0584

> <Gold.PLP.Chemscore.Hbond>
0.0000

> <Gold.PLP.Chemscore.CHOScore>
0.0000

> <Gold.PLP.Chemscore.Metal>
0.0000

> <Gold.PLP.Chemscore.Internal.Correction>
0.0000

