#       Name:                EN300-41936_i001
#       Creating user name   aseyller
#       Creation time:       Fri Apr 21 17:14:50 2023


#       File generated by GOLD software.
#

@<TRIPOS>MOLECULE
EN300-41936_i001|benzaldehydes|mol2|210|dock18
    29    29     1
SMALL
USER_CHARGES


@<TRIPOS>ATOM
      1 C1          27.4075  36.4972  39.0643 C.3            1 <1>                0.0000
      2 C2          28.7057  36.6400  38.3124 C.2            1 <1>                0.0000
      3 N3          29.7290  35.8359  38.3902 N.2            1 <1>                0.0000
      4 N4          30.7407  36.3028  37.5440 N.pl3          1 <1>                0.0000
      5 C5          30.3112  37.4209  36.9404 C.2            1 <1>                0.0000
      6 C6          31.0826  38.2519  35.9477 C.3            1 <1>                0.0000
      7 C7          29.0261  37.6673  37.3928 C.2            1 <1>                0.0000
      8 C8          28.1634  38.7870  37.0010 C.2            1 <1>                0.0000
      9 O9          26.9965  38.7983  37.3320 O.2            1 <1>                0.0000
     10 C10         32.0503  35.6756  37.3502 C.3            1 <1>                0.0000
     11 C11         33.1432  36.5988  37.8925 C.3            1 <1>                0.0000
     12 C12         32.0925  34.3414  38.0978 C.3            1 <1>                0.0000
     13 C13         32.2832  35.4315  35.8579 C.3            1 <1>                0.0000
     14 H14         27.4781  37.0260  40.0149 H              1 <1>                0.0000
     15 H15         26.5962  36.9207  38.4723 H              1 <1>                0.0000
     16 H16         27.2093  35.4416  39.2498 H              1 <1>                0.0000
     17 H17         30.8149  37.9499  34.9352 H              1 <1>                0.0000
     18 H18         30.8396  39.3050  36.0890 H              1 <1>                0.0000
     19 H19         32.1513  38.1018  36.1010 H              1 <1>                0.0000
     20 H20         28.5673  39.6013  36.4177 H              1 <1>                0.0000
     21 H21         32.9775  36.7727  38.9557 H              1 <1>                0.0000
     22 H22         34.1177  36.1321  37.7484 H              1 <1>                0.0000
     23 H23         33.1132  37.5493  37.3600 H              1 <1>                0.0000
     24 H24         31.3139  33.6836  37.7114 H              1 <1>                0.0000
     25 H25         33.0669  33.8746  37.9537 H              1 <1>                0.0000
     26 H26         31.9267  34.5152  39.1610 H              1 <1>                0.0000
     27 H27         32.3386  36.3878  35.3376 H              1 <1>                0.0000
     28 H28         33.2179  34.8882  35.7200 H              1 <1>                0.0000
     29 H29         31.4587  34.8447  35.4527 H              1 <1>                0.0000
@<TRIPOS>BOND
    1    1    2 1     
    2    1   14 1     
    3    1   15 1     
    4    1   16 1     
    5    2    3 2     
    6    2    7 1     
    7    3    4 1     
    8    4    5 1     
    9    4   10 1     
   10    5    6 1     
   11    5    7 2     
   12    6   17 1     
   13    6   18 1     
   14    6   19 1     
   15    7    8 1     
   16    8    9 2     
   17    8   20 1     
   18   10   11 1     
   19   10   12 1     
   20   10   13 1     
   21   11   21 1     
   22   11   22 1     
   23   11   23 1     
   24   12   24 1     
   25   12   25 1     
   26   12   26 1     
   27   13   27 1     
   28   13   28 1     
   29   13   29 1     
@<TRIPOS>SUBSTRUCTURE
      1 ****           1
@<TRIPOS>COMMENT
> <Gold.Version>
2022.2.0

> <Gold.Id.Protein>
1qkm|1qkm_protein|mol2

> <Gold.Protein.RotatedTorsions>
[  496  491  490  487 ] final -151.98 input  -89.99 | X-H torsion

> <Gold.Protein.ActiveResidues>
 MET295  LEU298  THR299  LEU301  ALA302  GLU305  TRP335  MET336  LEU339  MET340 
 GLY342  LEU343  ARG346  PHE356  ILE373  ILE376  PHE377  LEU380  LYS471  GLY472 
 MET473  HIS475  LEU476  LEU477  ASN478  MET479  VAL484  VAL487 

> <Gold.Protein.RotatedAtoms>
   37.2411   33.8889   40.7257 H   0  0  0  0  0  0  0  0  0  0  0  0  # atno 496  bound_to 491 

> <Gold.Score>
     Score     S(PLP)   S(hbond)     S(cho)   S(metal)  DE(clash)   DE(tors)     intcor
     37.35     -37.62       0.00       0.00       0.00       0.00       0.14       0.00

> <Gold.PLP.Fitness>
37.3464

> <Gold.PLP.PLP>
-37.6190

> <Gold.PLP.part.hbond>
0.0000

> <Gold.PLP.part.metal>
0.0000

> <Gold.PLP.part.buried>
-2.3468

> <Gold.PLP.part.nonpolar>
-35.6875

> <Gold.PLP.part.repulsive>
0.0352

> <Gold.PLP.ligand.clash>
0.0000

> <Gold.PLP.ligand.torsion>
0.1363

> <Gold.PLP.Chemscore.Hbond>
0.0000

> <Gold.PLP.Chemscore.CHOScore>
0.0000

> <Gold.PLP.Chemscore.Metal>
0.0000

> <Gold.PLP.Chemscore.Internal.Correction>
0.0000

