#       Name:                EN300-57200_i001
#       Creating user name   aseyller
#       Creation time:       Fri Apr 21 18:37:46 2023


#       File generated by GOLD software.
#

@<TRIPOS>MOLECULE
EN300-57200_i001|benzaldehydes|mol2|590|dock14
    25    26     1
SMALL
USER_CHARGES


@<TRIPOS>ATOM
      1 F1          34.0575  37.2680  37.9085 F              1 <1>                0.0000
      2 C2          32.8006  37.0824  37.4492 C.ar           1 <1>                0.0000
      3 C3          32.3716  37.7536  36.3167 C.ar           1 <1>                0.0000
      4 C4          31.0837  37.5647  35.8445 C.ar           1 <1>                0.0000
      5 F5          30.6668  38.2203  34.7394 F              1 <1>                0.0000
      6 C6          30.2237  36.7041  36.5038 C.ar           1 <1>                0.0000
      7 C7          30.6523  36.0307  37.6383 C.ar           1 <1>                0.0000
      8 O8          29.8090  35.1850  38.2865 O.3            1 <1>                0.0000
      9 C9          28.7934  35.7254  39.0053 C.ar           1 <1>                0.0000
     10 C10         27.6935  36.2695  38.3502 C.ar           1 <1>                0.0000
     11 C11         26.6642  36.8166  39.0721 C.ar           1 <1>                0.0000
     12 C12         26.7216  36.8269  40.4713 C.ar           1 <1>                0.0000
     13 C13         25.6217  37.4111  41.2494 C.2            1 <1>                0.0000
     14 O14         24.8212  36.6886  41.8050 O.2            1 <1>                0.0000
     15 C15         27.8312  36.2779  41.1260 C.ar           1 <1>                0.0000
     16 C16         28.8528  35.7285  40.3950 C.ar           1 <1>                0.0000
     17 C17         31.9445  36.2173  38.1075 C.ar           1 <1>                0.0000
     18 H18         33.0419  38.4254  35.8014 H              1 <1>                0.0000
     19 H19         29.2191  36.5573  36.1355 H              1 <1>                0.0000
     20 H20         27.6505  36.2613  37.2711 H              1 <1>                0.0000
     21 H21         25.8108  37.2390  38.5625 H              1 <1>                0.0000
     22 H22         25.5253  38.4841  41.3269 H              1 <1>                0.0000
     23 H23         27.8800  36.2834  42.2049 H              1 <1>                0.0000
     24 H24         29.7088  35.3045  40.8989 H              1 <1>                0.0000
     25 H25         32.2796  35.6934  38.9905 H              1 <1>                0.0000
@<TRIPOS>BOND
    1    1    2 1     
    2    2    3 ar    
    3    2   17 ar    
    4    3    4 ar    
    5    3   18 1     
    6    4    5 1     
    7    4    6 ar    
    8    6    7 ar    
    9    6   19 1     
   10    7    8 1     
   11    7   17 ar    
   12    8    9 1     
   13    9   10 ar    
   14    9   16 ar    
   15   10   11 ar    
   16   10   20 1     
   17   11   12 ar    
   18   11   21 1     
   19   12   13 1     
   20   12   15 ar    
   21   13   14 2     
   22   13   22 1     
   23   15   16 ar    
   24   15   23 1     
   25   16   24 1     
   26   17   25 1     
@<TRIPOS>SUBSTRUCTURE
      1 ****           1
@<TRIPOS>COMMENT
> <Gold.Version>
2022.2.0

> <Gold.Id.Protein>
1qkm|1qkm_protein|mol2

> <Gold.Protein.RotatedTorsions>
[  496  491  490  487 ] final -149.98 input  -89.99 | X-H torsion

> <Gold.Protein.ActiveResidues>
 MET295  LEU298  THR299  LEU301  ALA302  GLU305  TRP335  MET336  LEU339  MET340 
 GLY342  LEU343  ARG346  PHE356  ILE373  ILE376  PHE377  LEU380  LYS471  GLY472 
 MET473  HIS475  LEU476  LEU477  ASN478  MET479  VAL484  VAL487 

> <Gold.Protein.RotatedAtoms>
   37.2311   33.9202   40.7228 H   0  0  0  0  0  0  0  0  0  0  0  0  # atno 496  bound_to 491 

> <Gold.Score>
     Score     S(PLP)   S(hbond)     S(cho)   S(metal)  DE(clash)   DE(tors)     intcor
     48.58     -48.74       0.62       0.00       0.00       0.00       1.01       0.00

> <Gold.PLP.Fitness>
48.5793

> <Gold.PLP.PLP>
-48.7355

> <Gold.PLP.part.hbond>
-1.0000

> <Gold.PLP.part.metal>
0.0000

> <Gold.PLP.part.buried>
-4.3602

> <Gold.PLP.part.nonpolar>
-45.3110

> <Gold.PLP.part.repulsive>
0.3389

> <Gold.PLP.ligand.clash>
0.0000

> <Gold.PLP.ligand.torsion>
1.0150

> <Gold.PLP.Chemscore.Hbond>
0.6240

> <Gold.PLP.Chemscore.CHOScore>
0.0000

> <Gold.PLP.Chemscore.Metal>
0.0000

> <Gold.Chemscore.Hbonds>
donor molecule, donor type, donor heavy atom, donor atom, acceptor molecule, acceptor atom, score
      P1  H  1258  1270       L1    14  0.62

> <Gold.PLP.Chemscore.Internal.Correction>
0.0018

