#       Name:                EN300-57200_i001
#       Creating user name   aseyller
#       Creation time:       Fri Apr 21 18:37:42 2023


#       File generated by GOLD software.
#

@<TRIPOS>MOLECULE
EN300-57200_i001|benzaldehydes|mol2|590|dock9
    25    26     1
SMALL
USER_CHARGES


@<TRIPOS>ATOM
      1 F1          33.1983  36.2004  35.6101 F              1 <1>                0.0000
      2 C2          31.9763  36.4767  36.1158 C.ar           1 <1>                0.0000
      3 C3          31.2766  37.5845  35.6683 C.ar           1 <1>                0.0000
      4 C4          30.0242  37.8694  36.1855 C.ar           1 <1>                0.0000
      5 F5          29.3429  38.9506  35.7476 F              1 <1>                0.0000
      6 C6          29.4698  37.0467  37.1501 C.ar           1 <1>                0.0000
      7 C7          30.1695  35.9361  37.5991 C.ar           1 <1>                0.0000
      8 O8          29.6262  35.1271  38.5461 O.3            1 <1>                0.0000
      9 C9          28.6608  35.6434  39.3471 C.ar           1 <1>                0.0000
     10 C10         27.3606  35.7734  38.8701 C.ar           1 <1>                0.0000
     11 C11         26.3811  36.2943  39.6759 C.ar           1 <1>                0.0000
     12 C12         26.6917  36.6957  40.9812 C.ar           1 <1>                0.0000
     13 C13         25.6463  37.2538  41.8486 C.2            1 <1>                0.0000
     14 O14         24.5507  36.7349  41.8888 O.2            1 <1>                0.0000
     15 C15         28.0023  36.5628  41.4566 C.ar           1 <1>                0.0000
     16 C16         28.9732  36.0359  40.6445 C.ar           1 <1>                0.0000
     17 C17         31.4223  35.6493  37.0766 C.ar           1 <1>                0.0000
     18 H18         31.7083  38.2272  34.9154 H              1 <1>                0.0000
     19 H19         28.4931  37.2693  37.5536 H              1 <1>                0.0000
     20 H20         27.1223  35.4638  37.8633 H              1 <1>                0.0000
     21 H21         25.3720  36.3951  39.3045 H              1 <1>                0.0000
     22 H22         25.8530  38.1263  42.4507 H              1 <1>                0.0000
     23 H23         28.2466  36.8709  42.4624 H              1 <1>                0.0000
     24 H24         29.9842  35.9325  41.0103 H              1 <1>                0.0000
     25 H25         31.9680  34.7849  37.4250 H              1 <1>                0.0000
@<TRIPOS>BOND
    1    1    2 1     
    2    2    3 ar    
    3    2   17 ar    
    4    3    4 ar    
    5    3   18 1     
    6    4    5 1     
    7    4    6 ar    
    8    6    7 ar    
    9    6   19 1     
   10    7    8 1     
   11    7   17 ar    
   12    8    9 1     
   13    9   10 ar    
   14    9   16 ar    
   15   10   11 ar    
   16   10   20 1     
   17   11   12 ar    
   18   11   21 1     
   19   12   13 1     
   20   12   15 ar    
   21   13   14 2     
   22   13   22 1     
   23   15   16 ar    
   24   15   23 1     
   25   16   24 1     
   26   17   25 1     
@<TRIPOS>SUBSTRUCTURE
      1 ****           1
@<TRIPOS>COMMENT
> <Gold.Version>
2022.2.0

> <Gold.Id.Protein>
1qkm|1qkm_protein|mol2

> <Gold.Protein.RotatedTorsions>
[  496  491  490  487 ] final   88.35 input  -89.99 | X-H torsion

> <Gold.Protein.ActiveResidues>
 MET295  LEU298  THR299  LEU301  ALA302  GLU305  TRP335  MET336  LEU339  MET340 
 GLY342  LEU343  ARG346  PHE356  ILE373  ILE376  PHE377  LEU380  LYS471  GLY472 
 MET473  HIS475  LEU476  LEU477  ASN478  MET479  VAL484  VAL487 

> <Gold.Protein.RotatedAtoms>
   36.8050   33.0331   42.0437 H   0  0  0  0  0  0  0  0  0  0  0  0  # atno 496  bound_to 491 

> <Gold.Score>
     Score     S(PLP)   S(hbond)     S(cho)   S(metal)  DE(clash)   DE(tors)     intcor
     50.60     -51.21       0.66       0.00       0.00       0.74       0.92       0.01

> <Gold.PLP.Fitness>
50.6003

> <Gold.PLP.PLP>
-51.2053

> <Gold.PLP.part.hbond>
-0.3574

> <Gold.PLP.part.metal>
0.0000

> <Gold.PLP.part.buried>
-2.1457

> <Gold.PLP.part.nonpolar>
-53.0539

> <Gold.PLP.part.repulsive>
0.9652

> <Gold.PLP.ligand.clash>
0.7415

> <Gold.PLP.ligand.torsion>
0.9200

> <Gold.PLP.Chemscore.Hbond>
0.6560

> <Gold.PLP.Chemscore.CHOScore>
0.0000

> <Gold.PLP.Chemscore.Metal>
0.0000

> <Gold.Chemscore.Hbonds>
donor molecule, donor type, donor heavy atom, donor atom, acceptor molecule, acceptor atom, score
      P1  H  1258  1270       L1    14  0.66

> <Gold.PLP.Chemscore.Internal.Correction>
0.0085

