#       Name:                EN300-57200_i001
#       Creating user name   aseyller
#       Creation time:       Fri Apr 21 18:37:44 2023


#       File generated by GOLD software.
#

@<TRIPOS>MOLECULE
EN300-57200_i001|benzaldehydes|mol2|590|dock11
    25    26     1
SMALL
USER_CHARGES


@<TRIPOS>ATOM
      1 F1          34.3993  36.3451  36.4464 F              1 <1>                0.0000
      2 C2          33.0698  36.3650  36.6859 C.ar           1 <1>                0.0000
      3 C3          32.2236  37.0546  35.8341 C.ar           1 <1>                0.0000
      4 C4          30.8608  37.0762  36.0780 C.ar           1 <1>                0.0000
      5 F5          30.0366  37.7495  35.2459 F              1 <1>                0.0000
      6 C6          30.3426  36.4081  37.1734 C.ar           1 <1>                0.0000
      7 C7          31.1892  35.7165  38.0274 C.ar           1 <1>                0.0000
      8 O8          30.6818  35.0595  39.1032 O.3            1 <1>                0.0000
      9 C9          29.4858  35.4703  39.5943 C.ar           1 <1>                0.0000
     10 C10         29.4420  36.2832  40.7222 C.ar           1 <1>                0.0000
     11 C11         28.2358  36.7014  41.2223 C.ar           1 <1>                0.0000
     12 C12         27.0466  36.3088  40.5954 C.ar           1 <1>                0.0000
     13 C13         25.7520  36.7542  41.1265 C.2            1 <1>                0.0000
     14 O14         25.7113  37.4591  42.1129 O.2            1 <1>                0.0000
     15 C15         27.0962  35.4903  39.4601 C.ar           1 <1>                0.0000
     16 C16         28.3077  35.0818  38.9649 C.ar           1 <1>                0.0000
     17 C17         32.5540  35.6917  37.7791 C.ar           1 <1>                0.0000
     18 H18         32.6269  37.5763  34.9789 H              1 <1>                0.0000
     19 H19         29.2796  36.4255  37.3636 H              1 <1>                0.0000
     20 H20         30.3596  36.5851  41.2050 H              1 <1>                0.0000
     21 H21         28.2028  37.3322  42.0983 H              1 <1>                0.0000
     22 H22         24.8361  36.4541  40.6391 H              1 <1>                0.0000
     23 H23         26.1819  35.1849  38.9731 H              1 <1>                0.0000
     24 H24         28.3472  34.4509  38.0892 H              1 <1>                0.0000
     25 H25         33.2142  35.1533  38.4430 H              1 <1>                0.0000
@<TRIPOS>BOND
    1    1    2 1     
    2    2    3 ar    
    3    2   17 ar    
    4    3    4 ar    
    5    3   18 1     
    6    4    5 1     
    7    4    6 ar    
    8    6    7 ar    
    9    6   19 1     
   10    7    8 1     
   11    7   17 ar    
   12    8    9 1     
   13    9   10 ar    
   14    9   16 ar    
   15   10   11 ar    
   16   10   20 1     
   17   11   12 ar    
   18   11   21 1     
   19   12   13 1     
   20   12   15 ar    
   21   13   14 2     
   22   13   22 1     
   23   15   16 ar    
   24   15   23 1     
   25   16   24 1     
   26   17   25 1     
@<TRIPOS>SUBSTRUCTURE
      1 ****           1
@<TRIPOS>COMMENT
> <Gold.Version>
2022.2.0

> <Gold.Id.Protein>
1qkm|1qkm_protein|mol2

> <Gold.Protein.RotatedTorsions>
[  496  491  490  487 ] final -126.47 input  -89.99 | X-H torsion

> <Gold.Protein.ActiveResidues>
 MET295  LEU298  THR299  LEU301  ALA302  GLU305  TRP335  MET336  LEU339  MET340 
 GLY342  LEU343  ARG346  PHE356  ILE373  ILE376  PHE377  LEU380  LYS471  GLY472 
 MET473  HIS475  LEU476  LEU477  ASN478  MET479  VAL484  VAL487 

> <Gold.Protein.RotatedAtoms>
   37.0779   34.2701   40.7650 H   0  0  0  0  0  0  0  0  0  0  0  0  # atno 496  bound_to 491 

> <Gold.Score>
     Score     S(PLP)   S(hbond)     S(cho)   S(metal)  DE(clash)   DE(tors)     intcor
     48.99     -50.74       0.01       0.00       0.00       0.58       0.60       0.01

> <Gold.PLP.Fitness>
48.9886

> <Gold.PLP.PLP>
-50.7431

> <Gold.PLP.part.hbond>
-1.0000

> <Gold.PLP.part.metal>
0.0000

> <Gold.PLP.part.buried>
-2.5178

> <Gold.PLP.part.nonpolar>
-48.7655

> <Gold.PLP.part.repulsive>
0.3305

> <Gold.PLP.ligand.clash>
0.5835

> <Gold.PLP.ligand.torsion>
0.6042

> <Gold.PLP.Chemscore.Hbond>
0.0104

> <Gold.PLP.Chemscore.CHOScore>
0.0000

> <Gold.PLP.Chemscore.Metal>
0.0000

> <Gold.Chemscore.Hbonds>
donor molecule, donor type, donor heavy atom, donor atom, acceptor molecule, acceptor atom, score
      P1  H  1258  1270       L1    14  0.01

> <Gold.PLP.Chemscore.Internal.Correction>
0.0062

