#       Name:                EN300-57200_i001
#       Creating user name   aseyller
#       Creation time:       Fri Apr 21 18:37:43 2023


#       File generated by GOLD software.
#

@<TRIPOS>MOLECULE
EN300-57200_i001|benzaldehydes|mol2|590|dock10
    25    26     1
SMALL
USER_CHARGES


@<TRIPOS>ATOM
      1 F1          26.0125  37.4688  37.6612 F              1 <1>                0.0000
      2 C2          26.5345  36.9742  38.8050 C.ar           1 <1>                0.0000
      3 C3          26.0330  37.3846  40.0286 C.ar           1 <1>                0.0000
      4 C4          26.5667  36.8788  41.2019 C.ar           1 <1>                0.0000
      5 F5          26.0762  37.2803  42.3949 F              1 <1>                0.0000
      6 C6          27.6018  35.9618  41.1530 C.ar           1 <1>                0.0000
      7 C7          28.1049  35.5494  39.9277 C.ar           1 <1>                0.0000
      8 O8          29.1211  34.6487  39.8781 O.3            1 <1>                0.0000
      9 C9          30.1837  34.9305  39.0834 C.ar           1 <1>                0.0000
     10 C10         30.5554  36.2532  38.8663 C.ar           1 <1>                0.0000
     11 C11         31.6289  36.5434  38.0642 C.ar           1 <1>                0.0000
     12 C12         32.3515  35.5052  37.4631 C.ar           1 <1>                0.0000
     13 C13         33.5025  35.8103  36.6035 C.2            1 <1>                0.0000
     14 O14         33.4217  36.6890  35.7713 O.2            1 <1>                0.0000
     15 C15         31.9732  34.1751  37.6849 C.ar           1 <1>                0.0000
     16 C16         30.9014  33.8955  38.4929 C.ar           1 <1>                0.0000
     17 C17         27.5660  36.0535  38.7529 C.ar           1 <1>                0.0000
     18 H18         25.2252  38.1002  40.0680 H              1 <1>                0.0000
     19 H19         28.0182  35.5678  42.0682 H              1 <1>                0.0000
     20 H20         29.9972  37.0530  39.3301 H              1 <1>                0.0000
     21 H21         31.9165  37.5707  37.8960 H              1 <1>                0.0000
     22 H22         34.4207  35.2522  36.7122 H              1 <1>                0.0000
     23 H23         32.5274  33.3711  37.2236 H              1 <1>                0.0000
     24 H24         30.6090  32.8701  38.6649 H              1 <1>                0.0000
     25 H25         27.9565  35.7329  37.7982 H              1 <1>                0.0000
@<TRIPOS>BOND
    1    1    2 1     
    2    2    3 ar    
    3    2   17 ar    
    4    3    4 ar    
    5    3   18 1     
    6    4    5 1     
    7    4    6 ar    
    8    6    7 ar    
    9    6   19 1     
   10    7    8 1     
   11    7   17 ar    
   12    8    9 1     
   13    9   10 ar    
   14    9   16 ar    
   15   10   11 ar    
   16   10   20 1     
   17   11   12 ar    
   18   11   21 1     
   19   12   13 1     
   20   12   15 ar    
   21   13   14 2     
   22   13   22 1     
   23   15   16 ar    
   24   15   23 1     
   25   16   24 1     
   26   17   25 1     
@<TRIPOS>SUBSTRUCTURE
      1 ****           1
@<TRIPOS>COMMENT
> <Gold.Version>
2022.2.0

> <Gold.Id.Protein>
1qkm|1qkm_protein|mol2

> <Gold.Protein.RotatedTorsions>
[  496  491  490  487 ] final  -85.15 input  -89.99 | X-H torsion

> <Gold.Protein.ActiveResidues>
 MET295  LEU298  THR299  LEU301  ALA302  GLU305  TRP335  MET336  LEU339  MET340 
 GLY342  LEU343  ARG346  PHE356  ILE373  ILE376  PHE377  LEU380  LYS471  GLY472 
 MET473  HIS475  LEU476  LEU477  ASN478  MET479  VAL484  VAL487 

> <Gold.Protein.RotatedAtoms>
   36.7127   34.6822   41.1388 H   0  0  0  0  0  0  0  0  0  0  0  0  # atno 496  bound_to 491 

> <Gold.Score>
     Score     S(PLP)   S(hbond)     S(cho)   S(metal)  DE(clash)   DE(tors)     intcor
     50.97     -52.76       0.00       0.00       0.00       0.06       0.87       0.01

> <Gold.PLP.Fitness>
50.9743

> <Gold.PLP.PLP>
-52.7644

> <Gold.PLP.part.hbond>
0.0000

> <Gold.PLP.part.metal>
0.0000

> <Gold.PLP.part.buried>
2.6417

> <Gold.PLP.part.nonpolar>
-56.3852

> <Gold.PLP.part.repulsive>
0.1602

> <Gold.PLP.ligand.clash>
0.0597

> <Gold.PLP.ligand.torsion>
0.8683

> <Gold.PLP.Chemscore.Hbond>
0.0000

> <Gold.PLP.Chemscore.CHOScore>
0.0000

> <Gold.PLP.Chemscore.Metal>
0.0000

> <Gold.PLP.Chemscore.Internal.Correction>
0.0062

