#       Name:                EN300-57200_i001
#       Creating user name   aseyller
#       Creation time:       Fri Apr 21 18:37:48 2023


#       File generated by GOLD software.
#

@<TRIPOS>MOLECULE
EN300-57200_i001|benzaldehydes|mol2|590|dock17
    25    26     1
SMALL
USER_CHARGES


@<TRIPOS>ATOM
      1 F1          34.6385  36.4089  35.1999 F              1 <1>                0.0000
      2 C2          33.3566  36.4768  35.6211 C.ar           1 <1>                0.0000
      3 C3          32.4740  37.3534  35.0130 C.ar           1 <1>                0.0000
      4 C4          31.1598  37.4245  35.4434 C.ar           1 <1>                0.0000
      5 F5          30.3001  38.2803  34.8490 F              1 <1>                0.0000
      6 C6          30.7266  36.6189  36.4817 C.ar           1 <1>                0.0000
      7 C7          31.6097  35.7398  37.0915 C.ar           1 <1>                0.0000
      8 O8          31.1856  34.9477  38.1110 O.3            1 <1>                0.0000
      9 C9          30.1425  35.3808  38.8623 C.ar           1 <1>                0.0000
     10 C10         28.9570  34.6536  38.8870 C.ar           1 <1>                0.0000
     11 C11         27.8999  35.0867  39.6451 C.ar           1 <1>                0.0000
     12 C12         28.0153  36.2636  40.3955 C.ar           1 <1>                0.0000
     13 C13         26.8864  36.7319  41.2096 C.2            1 <1>                0.0000
     14 O14         25.7604  36.3575  40.9576 O.2            1 <1>                0.0000
     15 C15         29.2110  36.9921  40.3672 C.ar           1 <1>                0.0000
     16 C16         30.2640  36.5475  39.6100 C.ar           1 <1>                0.0000
     17 C17         32.9249  35.6663  36.6561 C.ar           1 <1>                0.0000
     18 H18         32.8109  37.9826  34.2026 H              1 <1>                0.0000
     19 H19         29.7017  36.6748  36.8174 H              1 <1>                0.0000
     20 H20         28.8690  33.7464  38.3077 H              1 <1>                0.0000
     21 H21         26.9798  34.5216  39.6634 H              1 <1>                0.0000
     22 H22         27.0585  37.4097  42.0327 H              1 <1>                0.0000
     23 H23         29.3049  37.9002  40.9442 H              1 <1>                0.0000
     24 H24         31.1867  37.1084  39.5877 H              1 <1>                0.0000
     25 H25         33.6134  34.9821  37.1298 H              1 <1>                0.0000
@<TRIPOS>BOND
    1    1    2 1     
    2    2    3 ar    
    3    2   17 ar    
    4    3    4 ar    
    5    3   18 1     
    6    4    5 1     
    7    4    6 ar    
    8    6    7 ar    
    9    6   19 1     
   10    7    8 1     
   11    7   17 ar    
   12    8    9 1     
   13    9   10 ar    
   14    9   16 ar    
   15   10   11 ar    
   16   10   20 1     
   17   11   12 ar    
   18   11   21 1     
   19   12   13 1     
   20   12   15 ar    
   21   13   14 2     
   22   13   22 1     
   23   15   16 ar    
   24   15   23 1     
   25   16   24 1     
   26   17   25 1     
@<TRIPOS>SUBSTRUCTURE
      1 ****           1
@<TRIPOS>COMMENT
> <Gold.Version>
2022.2.0

> <Gold.Id.Protein>
1qkm|1qkm_protein|mol2

> <Gold.Protein.RotatedTorsions>
[  496  491  490  487 ] final -116.07 input  -89.99 | X-H torsion

> <Gold.Protein.ActiveResidues>
 MET295  LEU298  THR299  LEU301  ALA302  GLU305  TRP335  MET336  LEU339  MET340 
 GLY342  LEU343  ARG346  PHE356  ILE373  ILE376  PHE377  LEU380  LYS471  GLY472 
 MET473  HIS475  LEU476  LEU477  ASN478  MET479  VAL484  VAL487 

> <Gold.Protein.RotatedAtoms>
   36.9931   34.4050   40.8265 H   0  0  0  0  0  0  0  0  0  0  0  0  # atno 496  bound_to 491 

> <Gold.Score>
     Score     S(PLP)   S(hbond)     S(cho)   S(metal)  DE(clash)   DE(tors)     intcor
     48.70     -49.78       0.00       0.00       0.00       0.14       0.47       0.00

> <Gold.PLP.Fitness>
48.7036

> <Gold.PLP.PLP>
-49.7816

> <Gold.PLP.part.hbond>
0.0000

> <Gold.PLP.part.metal>
0.0000

> <Gold.PLP.part.buried>
-4.3853

> <Gold.PLP.part.nonpolar>
-46.7431

> <Gold.PLP.part.repulsive>
0.2479

> <Gold.PLP.ligand.clash>
0.1385

> <Gold.PLP.ligand.torsion>
0.4706

> <Gold.PLP.Chemscore.Hbond>
0.0000

> <Gold.PLP.Chemscore.CHOScore>
0.0000

> <Gold.PLP.Chemscore.Metal>
0.0000

> <Gold.PLP.Chemscore.Internal.Correction>
0.0018

