#       Name:                EN300-57200_i001
#       Creating user name   aseyller
#       Creation time:       Fri Apr 21 18:37:51 2023


#       File generated by GOLD software.
#

@<TRIPOS>MOLECULE
EN300-57200_i001|benzaldehydes|mol2|590|dock20
    25    26     1
SMALL
USER_CHARGES


@<TRIPOS>ATOM
      1 F1          33.6235  37.8497  36.9257 F              1 <1>                0.0000
      2 C2          32.6077  37.0125  37.2299 C.ar           1 <1>                0.0000
      3 C3          32.8750  35.7020  37.5881 C.ar           1 <1>                0.0000
      4 C4          31.8352  34.8424  37.9002 C.ar           1 <1>                0.0000
      5 F5          32.0978  33.5641  38.2496 F              1 <1>                0.0000
      6 C6          30.5275  35.2923  37.8551 C.ar           1 <1>                0.0000
      7 C7          30.2583  36.6052  37.4968 C.ar           1 <1>                0.0000
      8 O8          28.9746  37.0485  37.4524 O.3            1 <1>                0.0000
      9 C9          28.2172  36.9193  38.5703 C.ar           1 <1>                0.0000
     10 C10         26.8304  36.8864  38.4680 C.ar           1 <1>                0.0000
     11 C11         26.0603  36.7555  39.5949 C.ar           1 <1>                0.0000
     12 C12         26.6725  36.6549  40.8504 C.ar           1 <1>                0.0000
     13 C13         25.8525  36.5142  42.0606 C.2            1 <1>                0.0000
     14 O14         24.7156  36.9365  42.0753 O.2            1 <1>                0.0000
     15 C15         28.0691  36.6886  40.9481 C.ar           1 <1>                0.0000
     16 C16         28.8302  36.8145  39.8146 C.ar           1 <1>                0.0000
     17 C17         31.3014  37.4666  37.1890 C.ar           1 <1>                0.0000
     18 H18         33.8952  35.3497  37.6238 H              1 <1>                0.0000
     19 H19         29.7167  34.6215  38.0982 H              1 <1>                0.0000
     20 H20         26.3593  36.9644  37.4993 H              1 <1>                0.0000
     21 H21         24.9837  36.7304  39.5144 H              1 <1>                0.0000
     22 H22         26.2618  36.0347  42.9376 H              1 <1>                0.0000
     23 H23         28.5458  36.6113  41.9140 H              1 <1>                0.0000
     24 H24         29.9074  36.8402  39.8887 H              1 <1>                0.0000
     25 H25         31.0932  38.4891  36.9102 H              1 <1>                0.0000
@<TRIPOS>BOND
    1    1    2 1     
    2    2    3 ar    
    3    2   17 ar    
    4    3    4 ar    
    5    3   18 1     
    6    4    5 1     
    7    4    6 ar    
    8    6    7 ar    
    9    6   19 1     
   10    7    8 1     
   11    7   17 ar    
   12    8    9 1     
   13    9   10 ar    
   14    9   16 ar    
   15   10   11 ar    
   16   10   20 1     
   17   11   12 ar    
   18   11   21 1     
   19   12   13 1     
   20   12   15 ar    
   21   13   14 2     
   22   13   22 1     
   23   15   16 ar    
   24   15   23 1     
   25   16   24 1     
   26   17   25 1     
@<TRIPOS>SUBSTRUCTURE
      1 ****           1
@<TRIPOS>COMMENT
> <Gold.Version>
2022.2.0

> <Gold.Id.Protein>
1qkm|1qkm_protein|mol2

> <Gold.Protein.RotatedTorsions>
[  496  491  490  487 ] final -161.63 input  -89.99 | X-H torsion

> <Gold.Protein.ActiveResidues>
 MET295  LEU298  THR299  LEU301  ALA302  GLU305  TRP335  MET336  LEU339  MET340 
 GLY342  LEU343  ARG346  PHE356  ILE373  ILE376  PHE377  LEU380  LYS471  GLY472 
 MET473  HIS475  LEU476  LEU477  ASN478  MET479  VAL484  VAL487 

> <Gold.Protein.RotatedAtoms>
   37.2810   33.7379   40.7534 H   0  0  0  0  0  0  0  0  0  0  0  0  # atno 496  bound_to 491 

> <Gold.Score>
     Score     S(PLP)   S(hbond)     S(cho)   S(metal)  DE(clash)   DE(tors)     intcor
     49.00     -49.40       0.43       0.00       0.00       0.71       0.49       0.00

> <Gold.PLP.Fitness>
49.0039

> <Gold.PLP.PLP>
-49.3968

> <Gold.PLP.part.hbond>
0.2174

> <Gold.PLP.part.metal>
0.0000

> <Gold.PLP.part.buried>
0.2458

> <Gold.PLP.part.nonpolar>
-50.6114

> <Gold.PLP.part.repulsive>
0.3109

> <Gold.PLP.ligand.clash>
0.7073

> <Gold.PLP.ligand.torsion>
0.4883

> <Gold.PLP.Chemscore.Hbond>
0.4298

> <Gold.PLP.Chemscore.CHOScore>
0.0000

> <Gold.PLP.Chemscore.Metal>
0.0000

> <Gold.Chemscore.Hbonds>
donor molecule, donor type, donor heavy atom, donor atom, acceptor molecule, acceptor atom, score
      P1  H  1258  1270       L1    14  0.43

> <Gold.PLP.Chemscore.Internal.Correction>
0.0018

