#       Name:                EN300-57200_i001
#       Creating user name   aseyller
#       Creation time:       Fri Apr 21 18:37:45 2023


#       File generated by GOLD software.
#

@<TRIPOS>MOLECULE
EN300-57200_i001|benzaldehydes|mol2|590|dock13
    25    26     1
SMALL
USER_CHARGES


@<TRIPOS>ATOM
      1 F1          32.5009  35.2021  35.5427 F              1 <1>                0.0000
      2 C2          31.8473  36.0000  36.4153 C.ar           1 <1>                0.0000
      3 C3          31.6240  37.3303  36.1028 C.ar           1 <1>                0.0000
      4 C4          30.9544  38.1497  36.9959 C.ar           1 <1>                0.0000
      5 F5          30.7373  39.4473  36.6894 F              1 <1>                0.0000
      6 C6          30.5069  37.6398  38.2019 C.ar           1 <1>                0.0000
      7 C7          30.7295  36.3070  38.5161 C.ar           1 <1>                0.0000
      8 O8          30.2903  35.8048  39.6999 O.3            1 <1>                0.0000
      9 C9          29.0215  36.0939  40.0827 C.ar           1 <1>                0.0000
     10 C10         28.7663  36.4954  41.3899 C.ar           1 <1>                0.0000
     11 C11         27.4857  36.7891  41.7818 C.ar           1 <1>                0.0000
     12 C12         26.4336  36.6842  40.8634 C.ar           1 <1>                0.0000
     13 C13         25.0601  36.9979  41.2777 C.2            1 <1>                0.0000
     14 O14         24.5010  36.3032  42.0999 O.2            1 <1>                0.0000
     15 C15         26.6957  36.2794  39.5486 C.ar           1 <1>                0.0000
     16 C16         27.9807  35.9931  39.1654 C.ar           1 <1>                0.0000
     17 C17         31.3964  35.4861  37.6183 C.ar           1 <1>                0.0000
     18 H18         31.9727  37.7293  35.1619 H              1 <1>                0.0000
     19 H19         29.9850  38.2792  38.8984 H              1 <1>                0.0000
     20 H20         29.5783  36.5756  42.0973 H              1 <1>                0.0000
     21 H21         27.2886  37.1004  42.7969 H              1 <1>                0.0000
     22 H22         24.5476  37.8471  40.8502 H              1 <1>                0.0000
     23 H23         25.8878  36.1971  38.8367 H              1 <1>                0.0000
     24 H24         28.1840  35.6813  38.1515 H              1 <1>                0.0000
     25 H25         31.5701  34.4482  37.8615 H              1 <1>                0.0000
@<TRIPOS>BOND
    1    1    2 1     
    2    2    3 ar    
    3    2   17 ar    
    4    3    4 ar    
    5    3   18 1     
    6    4    5 1     
    7    4    6 ar    
    8    6    7 ar    
    9    6   19 1     
   10    7    8 1     
   11    7   17 ar    
   12    8    9 1     
   13    9   10 ar    
   14    9   16 ar    
   15   10   11 ar    
   16   10   20 1     
   17   11   12 ar    
   18   11   21 1     
   19   12   13 1     
   20   12   15 ar    
   21   13   14 2     
   22   13   22 1     
   23   15   16 ar    
   24   15   23 1     
   25   16   24 1     
   26   17   25 1     
@<TRIPOS>SUBSTRUCTURE
      1 ****           1
@<TRIPOS>COMMENT
> <Gold.Version>
2022.2.0

> <Gold.Id.Protein>
1qkm|1qkm_protein|mol2

> <Gold.Protein.RotatedTorsions>
[  496  491  490  487 ] final  -52.38 input  -89.99 | X-H torsion

> <Gold.Protein.ActiveResidues>
 MET295  LEU298  THR299  LEU301  ALA302  GLU305  TRP335  MET336  LEU339  MET340 
 GLY342  LEU343  ARG346  PHE356  ILE373  ILE376  PHE377  LEU380  LYS471  GLY472 
 MET473  HIS475  LEU476  LEU477  ASN478  MET479  VAL484  VAL487 

> <Gold.Protein.RotatedAtoms>
   36.4409   34.7132   41.5951 H   0  0  0  0  0  0  0  0  0  0  0  0  # atno 496  bound_to 491 

> <Gold.Score>
     Score     S(PLP)   S(hbond)     S(cho)   S(metal)  DE(clash)   DE(tors)     intcor
     52.64     -51.80       0.92       0.00       0.00       0.00       0.96       0.00

> <Gold.PLP.Fitness>
52.6408

> <Gold.PLP.PLP>
-51.7988

> <Gold.PLP.part.hbond>
-0.6327

> <Gold.PLP.part.metal>
0.0000

> <Gold.PLP.part.buried>
-1.6951

> <Gold.PLP.part.nonpolar>
-53.5258

> <Gold.PLP.part.repulsive>
3.9030

> <Gold.PLP.ligand.clash>
0.0000

> <Gold.PLP.ligand.torsion>
0.9597

> <Gold.PLP.Chemscore.Hbond>
0.9199

> <Gold.PLP.Chemscore.CHOScore>
0.0000

> <Gold.PLP.Chemscore.Metal>
0.0000

> <Gold.Chemscore.Hbonds>
donor molecule, donor type, donor heavy atom, donor atom, acceptor molecule, acceptor atom, score
      P1  H  1258  1270       L1    14  0.92

> <Gold.PLP.Chemscore.Internal.Correction>
0.0018

