#       Name:                EN300-57200_i001
#       Creating user name   aseyller
#       Creation time:       Fri Apr 21 18:37:49 2023


#       File generated by GOLD software.
#

@<TRIPOS>MOLECULE
EN300-57200_i001|benzaldehydes|mol2|590|dock18
    25    26     1
SMALL
USER_CHARGES


@<TRIPOS>ATOM
      1 F1          26.1781  36.1116  38.4732 F              1 <1>                0.0000
      2 C2          27.2530  36.1109  39.2916 C.ar           1 <1>                0.0000
      3 C3          27.1446  36.6151  40.5765 C.ar           1 <1>                0.0000
      4 C4          28.2453  36.6153  41.4168 C.ar           1 <1>                0.0000
      5 F5          28.1377  37.1076  42.6702 F              1 <1>                0.0000
      6 C6          29.4551  36.1108  40.9733 C.ar           1 <1>                0.0000
      7 C7          29.5650  35.6050  39.6863 C.ar           1 <1>                0.0000
      8 O8          30.7523  35.1089  39.2496 O.3            1 <1>                0.0000
      9 C9          31.2872  35.6383  38.1210 C.ar           1 <1>                0.0000
     10 C10         32.0954  34.8549  37.3035 C.ar           1 <1>                0.0000
     11 C11         32.6381  35.3851  36.1615 C.ar           1 <1>                0.0000
     12 C12         32.3775  36.7177  35.8186 C.ar           1 <1>                0.0000
     13 C13         32.9559  37.2905  34.5963 C.2            1 <1>                0.0000
     14 O14         32.4427  38.2603  34.0793 O.2            1 <1>                0.0000
     15 C15         31.5633  37.5022  36.6450 C.ar           1 <1>                0.0000
     16 C16         31.0211  36.9609  37.7821 C.ar           1 <1>                0.0000
     17 C17         28.4601  35.6011  38.8472 C.ar           1 <1>                0.0000
     18 H18         26.2009  37.0090  40.9237 H              1 <1>                0.0000
     19 H19         30.3134  36.1115  41.6287 H              1 <1>                0.0000
     20 H20         32.2959  33.8275  37.5691 H              1 <1>                0.0000
     21 H21         33.2657  34.7762  35.5277 H              1 <1>                0.0000
     22 H22         33.8382  36.8482  34.1576 H              1 <1>                0.0000
     23 H23         31.3594  38.5303  36.3848 H              1 <1>                0.0000
     24 H24         30.3927  37.5648  38.4199 H              1 <1>                0.0000
     25 H25         28.5442  35.2072  37.8450 H              1 <1>                0.0000
@<TRIPOS>BOND
    1    1    2 1     
    2    2    3 ar    
    3    2   17 ar    
    4    3    4 ar    
    5    3   18 1     
    6    4    5 1     
    7    4    6 ar    
    8    6    7 ar    
    9    6   19 1     
   10    7    8 1     
   11    7   17 ar    
   12    8    9 1     
   13    9   10 ar    
   14    9   16 ar    
   15   10   11 ar    
   16   10   20 1     
   17   11   12 ar    
   18   11   21 1     
   19   12   13 1     
   20   12   15 ar    
   21   13   14 2     
   22   13   22 1     
   23   15   16 ar    
   24   15   23 1     
   25   16   24 1     
   26   17   25 1     
@<TRIPOS>SUBSTRUCTURE
      1 ****           1
@<TRIPOS>COMMENT
> <Gold.Version>
2022.2.0

> <Gold.Id.Protein>
1qkm|1qkm_protein|mol2

> <Gold.Protein.RotatedTorsions>
[  496  491  490  487 ] final  159.18 input  -89.99 | X-H torsion

> <Gold.Protein.ActiveResidues>
 MET295  LEU298  THR299  LEU301  ALA302  GLU305  TRP335  MET336  LEU339  MET340 
 GLY342  LEU343  ARG346  PHE356  ILE373  ILE376  PHE377  LEU380  LYS471  GLY472 
 MET473  HIS475  LEU476  LEU477  ASN478  MET479  VAL484  VAL487 

> <Gold.Protein.RotatedAtoms>
   37.2945   33.1962   41.0801 H   0  0  0  0  0  0  0  0  0  0  0  0  # atno 496  bound_to 491 

> <Gold.Score>
     Score     S(PLP)   S(hbond)     S(cho)   S(metal)  DE(clash)   DE(tors)     intcor
     49.42     -50.41       0.00       0.00       0.00       0.00       0.50       0.00

> <Gold.PLP.Fitness>
49.4201

> <Gold.PLP.PLP>
-50.4123

> <Gold.PLP.part.hbond>
0.0000

> <Gold.PLP.part.metal>
0.0000

> <Gold.PLP.part.buried>
-1.9177

> <Gold.PLP.part.nonpolar>
-50.1014

> <Gold.PLP.part.repulsive>
0.9752

> <Gold.PLP.ligand.clash>
0.0000

> <Gold.PLP.ligand.torsion>
0.4970

> <Gold.PLP.Chemscore.Hbond>
0.0000

> <Gold.PLP.Chemscore.CHOScore>
0.0000

> <Gold.PLP.Chemscore.Metal>
0.0000

> <Gold.PLP.Chemscore.Internal.Correction>
0.0018

