#       Name:                EN300-57200_i001
#       Creating user name   aseyller
#       Creation time:       Fri Apr 21 18:37:42 2023


#       File generated by GOLD software.
#

@<TRIPOS>MOLECULE
EN300-57200_i001|benzaldehydes|mol2|590|dock8
    25    26     1
SMALL
USER_CHARGES


@<TRIPOS>ATOM
      1 F1          32.4974  37.4621  34.0290 F              1 <1>                0.0000
      2 C2          32.0585  37.1035  35.2554 C.ar           1 <1>                0.0000
      3 C3          32.4473  35.8924  35.8025 C.ar           1 <1>                0.0000
      4 C4          31.9985  35.5231  37.0593 C.ar           1 <1>                0.0000
      5 F5          32.3789  34.3411  37.5916 F              1 <1>                0.0000
      6 C6          31.1611  36.3643  37.7704 C.ar           1 <1>                0.0000
      7 C7          30.7711  37.5781  37.2236 C.ar           1 <1>                0.0000
      8 O8          29.9490  38.4054  37.9210 O.3            1 <1>                0.0000
      9 C9          28.9441  37.8464  38.6405 C.ar           1 <1>                0.0000
     10 C10         27.6464  37.8526  38.1396 C.ar           1 <1>                0.0000
     11 C11         26.6272  37.2885  38.8628 C.ar           1 <1>                0.0000
     12 C12         26.8946  36.7055  40.1078 C.ar           1 <1>                0.0000
     13 C13         25.8068  36.0995  40.8863 C.2            1 <1>                0.0000
     14 O14         25.1072  36.7939  41.5932 O.2            1 <1>                0.0000
     15 C15         28.2028  36.7019  40.6076 C.ar           1 <1>                0.0000
     16 C16         29.2158  37.2639  39.8742 C.ar           1 <1>                0.0000
     17 C17         31.2254  37.9490  35.9663 C.ar           1 <1>                0.0000
     18 H18         33.1009  35.2351  35.2484 H              1 <1>                0.0000
     19 H19         30.8108  36.0758  38.7505 H              1 <1>                0.0000
     20 H20         27.4413  38.3027  37.1796 H              1 <1>                0.0000
     21 H21         25.6200  37.2941  38.4732 H              1 <1>                0.0000
     22 H22         25.6297  35.0356  40.8296 H              1 <1>                0.0000
     23 H23         28.4140  36.2535  41.5671 H              1 <1>                0.0000
     24 H24         30.2251  37.2614  40.2585 H              1 <1>                0.0000
     25 H25         30.9228  38.8939  35.5396 H              1 <1>                0.0000
@<TRIPOS>BOND
    1    1    2 1     
    2    2    3 ar    
    3    2   17 ar    
    4    3    4 ar    
    5    3   18 1     
    6    4    5 1     
    7    4    6 ar    
    8    6    7 ar    
    9    6   19 1     
   10    7    8 1     
   11    7   17 ar    
   12    8    9 1     
   13    9   10 ar    
   14    9   16 ar    
   15   10   11 ar    
   16   10   20 1     
   17   11   12 ar    
   18   11   21 1     
   19   12   13 1     
   20   12   15 ar    
   21   13   14 2     
   22   13   22 1     
   23   15   16 ar    
   24   15   23 1     
   25   16   24 1     
   26   17   25 1     
@<TRIPOS>SUBSTRUCTURE
      1 ****           1
@<TRIPOS>COMMENT
> <Gold.Version>
2022.2.0

> <Gold.Id.Protein>
1qkm|1qkm_protein|mol2

> <Gold.Protein.RotatedTorsions>
[  496  491  490  487 ] final  -38.64 input  -89.99 | X-H torsion

> <Gold.Protein.ActiveResidues>
 MET295  LEU298  THR299  LEU301  ALA302  GLU305  TRP335  MET336  LEU339  MET340 
 GLY342  LEU343  ARG346  PHE356  ILE373  ILE376  PHE377  LEU380  LYS471  GLY472 
 MET473  HIS475  LEU476  LEU477  ASN478  MET479  VAL484  VAL487 

> <Gold.Protein.RotatedAtoms>
   36.3559   34.6406   41.7913 H   0  0  0  0  0  0  0  0  0  0  0  0  # atno 496  bound_to 491 

> <Gold.Score>
     Score     S(PLP)   S(hbond)     S(cho)   S(metal)  DE(clash)   DE(tors)     intcor
     52.70     -54.10       0.40       0.00       0.00       0.00       1.31       0.01

> <Gold.PLP.Fitness>
52.7024

> <Gold.PLP.PLP>
-54.0963

> <Gold.PLP.part.hbond>
-1.0000

> <Gold.PLP.part.metal>
0.0000

> <Gold.PLP.part.buried>
-3.3053

> <Gold.PLP.part.nonpolar>
-49.7007

> <Gold.PLP.part.repulsive>
0.2683

> <Gold.PLP.ligand.clash>
0.0000

> <Gold.PLP.ligand.torsion>
1.3061

> <Gold.PLP.Chemscore.Hbond>
0.4033

> <Gold.PLP.Chemscore.CHOScore>
0.0000

> <Gold.PLP.Chemscore.Metal>
0.0000

> <Gold.Chemscore.Hbonds>
donor molecule, donor type, donor heavy atom, donor atom, acceptor molecule, acceptor atom, score
      P1  H  1258  1270       L1    14  0.40

> <Gold.PLP.Chemscore.Internal.Correction>
0.0085

