#       Name:                EN300-57200_i001
#       Creating user name   aseyller
#       Creation time:       Fri Apr 21 18:37:44 2023


#       File generated by GOLD software.
#

@<TRIPOS>MOLECULE
EN300-57200_i001|benzaldehydes|mol2|590|dock12
    25    26     1
SMALL
USER_CHARGES


@<TRIPOS>ATOM
      1 F1          32.9906  37.0475  35.6105 F              1 <1>                0.0000
      2 C2          31.7923  37.5539  35.9752 C.ar           1 <1>                0.0000
      3 C3          31.6028  38.9250  36.0114 C.ar           1 <1>                0.0000
      4 C4          30.3755  39.4460  36.3851 C.ar           1 <1>                0.0000
      5 F5          30.1923  40.7840  36.4198 F              1 <1>                0.0000
      6 C6          29.3364  38.5967  36.7224 C.ar           1 <1>                0.0000
      7 C7          29.5248  37.2227  36.6861 C.ar           1 <1>                0.0000
      8 O8          28.5052  36.3875  37.0167 O.3            1 <1>                0.0000
      9 C9          27.9209  36.5452  38.2307 C.ar           1 <1>                0.0000
     10 C10         28.6491  36.2918  39.3885 C.ar           1 <1>                0.0000
     11 C11         28.0632  36.4501  40.6180 C.ar           1 <1>                0.0000
     12 C12         26.7293  36.8675  40.7068 C.ar           1 <1>                0.0000
     13 C13         26.0971  37.0389  42.0212 C.2            1 <1>                0.0000
     14 O14         24.8897  36.9851  42.1250 O.2            1 <1>                0.0000
     15 C15         26.0006  37.1211  39.5381 C.ar           1 <1>                0.0000
     16 C16         26.5973  36.9650  38.3136 C.ar           1 <1>                0.0000
     17 C17         30.7536  36.7022  36.3070 C.ar           1 <1>                0.0000
     18 H18         32.4130  39.5888  35.7484 H              1 <1>                0.0000
     19 H19         28.3794  39.0033  37.0142 H              1 <1>                0.0000
     20 H20         29.6775  35.9697  39.3188 H              1 <1>                0.0000
     21 H21         28.6293  36.2528  41.5163 H              1 <1>                0.0000
     22 H22         26.7070  37.2131  42.8953 H              1 <1>                0.0000
     23 H23         24.9717  37.4432  39.6015 H              1 <1>                0.0000
     24 H24         26.0364  37.1607  37.4117 H              1 <1>                0.0000
     25 H25         30.9015  35.6327  36.2780 H              1 <1>                0.0000
@<TRIPOS>BOND
    1    1    2 1     
    2    2    3 ar    
    3    2   17 ar    
    4    3    4 ar    
    5    3   18 1     
    6    4    5 1     
    7    4    6 ar    
    8    6    7 ar    
    9    6   19 1     
   10    7    8 1     
   11    7   17 ar    
   12    8    9 1     
   13    9   10 ar    
   14    9   16 ar    
   15   10   11 ar    
   16   10   20 1     
   17   11   12 ar    
   18   11   21 1     
   19   12   13 1     
   20   12   15 ar    
   21   13   14 2     
   22   13   22 1     
   23   15   16 ar    
   24   15   23 1     
   25   16   24 1     
   26   17   25 1     
@<TRIPOS>SUBSTRUCTURE
      1 ****           1
@<TRIPOS>COMMENT
> <Gold.Version>
2022.2.0

> <Gold.Id.Protein>
1qkm|1qkm_protein|mol2

> <Gold.Protein.RotatedTorsions>
[  496  491  490  487 ] final -116.35 input  -89.99 | X-H torsion

> <Gold.Protein.ActiveResidues>
 MET295  LEU298  THR299  LEU301  ALA302  GLU305  TRP335  MET336  LEU339  MET340 
 GLY342  LEU343  ARG346  PHE356  ILE373  ILE376  PHE377  LEU380  LYS471  GLY472 
 MET473  HIS475  LEU476  LEU477  ASN478  MET479  VAL484  VAL487 

> <Gold.Protein.RotatedAtoms>
   36.9954   34.4016   40.8246 H   0  0  0  0  0  0  0  0  0  0  0  0  # atno 496  bound_to 491 

> <Gold.Score>
     Score     S(PLP)   S(hbond)     S(cho)   S(metal)  DE(clash)   DE(tors)     intcor
     48.89     -48.08       0.38       0.00       0.00       0.00       0.17       0.00

> <Gold.PLP.Fitness>
48.8891

> <Gold.PLP.PLP>
-48.0800

> <Gold.PLP.part.hbond>
-0.1071

> <Gold.PLP.part.metal>
0.0000

> <Gold.PLP.part.buried>
1.6630

> <Gold.PLP.part.nonpolar>
-50.4284

> <Gold.PLP.part.repulsive>
0.3079

> <Gold.PLP.ligand.clash>
0.0000

> <Gold.PLP.ligand.torsion>
0.1723

> <Gold.PLP.Chemscore.Hbond>
0.3840

> <Gold.PLP.Chemscore.CHOScore>
0.0000

> <Gold.PLP.Chemscore.Metal>
0.0000

> <Gold.Chemscore.Hbonds>
donor molecule, donor type, donor heavy atom, donor atom, acceptor molecule, acceptor atom, score
      P1  H  1258  1270       L1    14  0.38

> <Gold.PLP.Chemscore.Internal.Correction>
0.0018

