#       Name:                EN300-57200_i001
#       Creating user name   aseyller
#       Creation time:       Fri Apr 21 18:37:47 2023


#       File generated by GOLD software.
#

@<TRIPOS>MOLECULE
EN300-57200_i001|benzaldehydes|mol2|590|dock16
    25    26     1
SMALL
USER_CHARGES


@<TRIPOS>ATOM
      1 F1          33.6090  36.7175  34.6002 F              1 <1>                0.0000
      2 C2          32.4525  36.9269  35.2665 C.ar           1 <1>                0.0000
      3 C3          31.6562  38.0132  34.9458 C.ar           1 <1>                0.0000
      4 C4          30.4706  38.2296  35.6277 C.ar           1 <1>                0.0000
      5 F5          29.6949  39.2900  35.3134 F              1 <1>                0.0000
      6 C6          30.0797  37.3597  36.6303 C.ar           1 <1>                0.0000
      7 C7          30.8764  36.2706  36.9524 C.ar           1 <1>                0.0000
      8 O8          30.4936  35.4154  37.9365 O.3            1 <1>                0.0000
      9 C9          29.4874  35.8016  38.7601 C.ar           1 <1>                0.0000
     10 C10         29.7806  36.3130  40.0201 C.ar           1 <1>                0.0000
     11 C11         28.7672  36.7053  40.8562 C.ar           1 <1>                0.0000
     12 C12         27.4350  36.5902  40.4397 C.ar           1 <1>                0.0000
     13 C13         26.3458  37.0092  41.3311 C.2            1 <1>                0.0000
     14 O14         25.2355  37.2028  40.8825 O.2            1 <1>                0.0000
     15 C15         27.1452  36.0746  39.1703 C.ar           1 <1>                0.0000
     16 C16         28.1661  35.6902  38.3398 C.ar           1 <1>                0.0000
     17 C17         32.0616  36.0525  36.2651 C.ar           1 <1>                0.0000
     18 H18         31.9602  38.6928  34.1635 H              1 <1>                0.0000
     19 H19         29.1552  37.5289  37.1622 H              1 <1>                0.0000
     20 H20         30.8082  36.4011  40.3403 H              1 <1>                0.0000
     21 H21         28.9959  37.1019  41.8343 H              1 <1>                0.0000
     22 H22         26.5332  37.1450  42.3861 H              1 <1>                0.0000
     23 H23         26.1195  35.9840  38.8447 H              1 <1>                0.0000
     24 H24         27.9437  35.2928  37.3604 H              1 <1>                0.0000
     25 H25         32.6826  35.2048  36.5146 H              1 <1>                0.0000
@<TRIPOS>BOND
    1    1    2 1     
    2    2    3 ar    
    3    2   17 ar    
    4    3    4 ar    
    5    3   18 1     
    6    4    5 1     
    7    4    6 ar    
    8    6    7 ar    
    9    6   19 1     
   10    7    8 1     
   11    7   17 ar    
   12    8    9 1     
   13    9   10 ar    
   14    9   16 ar    
   15   10   11 ar    
   16   10   20 1     
   17   11   12 ar    
   18   11   21 1     
   19   12   13 1     
   20   12   15 ar    
   21   13   14 2     
   22   13   22 1     
   23   15   16 ar    
   24   15   23 1     
   25   16   24 1     
   26   17   25 1     
@<TRIPOS>SUBSTRUCTURE
      1 ****           1
@<TRIPOS>COMMENT
> <Gold.Version>
2022.2.0

> <Gold.Id.Protein>
1qkm|1qkm_protein|mol2

> <Gold.Protein.RotatedTorsions>
[  496  491  490  487 ] final -158.57 input  -89.99 | X-H torsion

> <Gold.Protein.ActiveResidues>
 MET295  LEU298  THR299  LEU301  ALA302  GLU305  TRP335  MET336  LEU339  MET340 
 GLY342  LEU343  ARG346  PHE356  ILE373  ILE376  PHE377  LEU380  LYS471  GLY472 
 MET473  HIS475  LEU476  LEU477  ASN478  MET479  VAL484  VAL487 

> <Gold.Protein.RotatedAtoms>
   37.2698   33.7857   40.7421 H   0  0  0  0  0  0  0  0  0  0  0  0  # atno 496  bound_to 491 

> <Gold.Score>
     Score     S(PLP)   S(hbond)     S(cho)   S(metal)  DE(clash)   DE(tors)     intcor
     47.26     -49.90       0.00       0.00       0.00       1.64       0.50       0.00

> <Gold.PLP.Fitness>
47.2614

> <Gold.PLP.PLP>
-49.8956

> <Gold.PLP.part.hbond>
-0.0285

> <Gold.PLP.part.metal>
0.0000

> <Gold.PLP.part.buried>
-1.6624

> <Gold.PLP.part.nonpolar>
-49.8713

> <Gold.PLP.part.repulsive>
0.1917

> <Gold.PLP.ligand.clash>
1.6389

> <Gold.PLP.ligand.torsion>
0.4985

> <Gold.PLP.Chemscore.Hbond>
0.0000

> <Gold.PLP.Chemscore.CHOScore>
0.0000

> <Gold.PLP.Chemscore.Metal>
0.0000

> <Gold.PLP.Chemscore.Internal.Correction>
0.0018

