#       Name:                EN300-57200_i001
#       Creating user name   aseyller
#       Creation time:       Fri Apr 21 18:37:41 2023


#       File generated by GOLD software.
#

@<TRIPOS>MOLECULE
EN300-57200_i001|benzaldehydes|mol2|590|dock7
    25    26     1
SMALL
USER_CHARGES


@<TRIPOS>ATOM
      1 F1          31.2295  32.6367  38.8012 F              1 <1>                0.0000
      2 C2          31.4499  33.8813  38.3239 C.ar           1 <1>                0.0000
      3 C3          32.7166  34.2453  37.8995 C.ar           1 <1>                0.0000
      4 C4          32.9444  35.5204  37.4101 C.ar           1 <1>                0.0000
      5 F5          34.1809  35.8738  36.9963 F              1 <1>                0.0000
      6 C6          31.9061  36.4326  37.3441 C.ar           1 <1>                0.0000
      7 C7          30.6363  36.0692  37.7687 C.ar           1 <1>                0.0000
      8 O8          29.6156  36.9638  37.7041 O.3            1 <1>                0.0000
      9 C9          28.6200  36.8613  38.6198 C.ar           1 <1>                0.0000
     10 C10         28.9280  36.8037  39.9750 C.ar           1 <1>                0.0000
     11 C11         27.9254  36.7005  40.9046 C.ar           1 <1>                0.0000
     12 C12         26.5893  36.6530  40.4873 C.ar           1 <1>                0.0000
     13 C13         25.5115  36.5428  41.4787 C.2            1 <1>                0.0000
     14 O14         25.4762  37.3032  42.4231 O.2            1 <1>                0.0000
     15 C15         26.2846  36.7112  39.1217 C.ar           1 <1>                0.0000
     16 C16         27.2943  36.8197  38.2005 C.ar           1 <1>                0.0000
     17 C17         30.4085  34.7897  38.2543 C.ar           1 <1>                0.0000
     18 H18         33.5277  33.5342  37.9504 H              1 <1>                0.0000
     19 H19         32.0841  37.4272  36.9628 H              1 <1>                0.0000
     20 H20         29.9586  36.8401  40.2956 H              1 <1>                0.0000
     21 H21         28.1655  36.6555  41.9565 H              1 <1>                0.0000
     22 H22         24.7503  35.7848  41.3670 H              1 <1>                0.0000
     23 H23         25.2558  36.6750  38.7950 H              1 <1>                0.0000
     24 H24         27.0604  36.8651  37.1471 H              1 <1>                0.0000
     25 H25         29.4204  34.5053  38.5848 H              1 <1>                0.0000
@<TRIPOS>BOND
    1    1    2 1     
    2    2    3 ar    
    3    2   17 ar    
    4    3    4 ar    
    5    3   18 1     
    6    4    5 1     
    7    4    6 ar    
    8    6    7 ar    
    9    6   19 1     
   10    7    8 1     
   11    7   17 ar    
   12    8    9 1     
   13    9   10 ar    
   14    9   16 ar    
   15   10   11 ar    
   16   10   20 1     
   17   11   12 ar    
   18   11   21 1     
   19   12   13 1     
   20   12   15 ar    
   21   13   14 2     
   22   13   22 1     
   23   15   16 ar    
   24   15   23 1     
   25   16   24 1     
   26   17   25 1     
@<TRIPOS>SUBSTRUCTURE
      1 ****           1
@<TRIPOS>COMMENT
> <Gold.Version>
2022.2.0

> <Gold.Id.Protein>
1qkm|1qkm_protein|mol2

> <Gold.Protein.RotatedTorsions>
[  496  491  490  487 ] final  -79.28 input  -89.99 | X-H torsion

> <Gold.Protein.ActiveResidues>
 MET295  LEU298  THR299  LEU301  ALA302  GLU305  TRP335  MET336  LEU339  MET340 
 GLY342  LEU343  ARG346  PHE356  ILE373  ILE376  PHE377  LEU380  LYS471  GLY472 
 MET473  HIS475  LEU476  LEU477  ASN478  MET479  VAL484  VAL487 

> <Gold.Protein.RotatedAtoms>
   36.6595   34.7090   41.2148 H   0  0  0  0  0  0  0  0  0  0  0  0  # atno 496  bound_to 491 

> <Gold.Score>
     Score     S(PLP)   S(hbond)     S(cho)   S(metal)  DE(clash)   DE(tors)     intcor
     52.52     -54.10       0.06       0.00       0.00       0.00       0.89       0.01

> <Gold.PLP.Fitness>
52.5187

> <Gold.PLP.PLP>
-54.0959

> <Gold.PLP.part.hbond>
-0.7013

> <Gold.PLP.part.metal>
0.0000

> <Gold.PLP.part.buried>
-3.5053

> <Gold.PLP.part.nonpolar>
-51.2115

> <Gold.PLP.part.repulsive>
0.3950

> <Gold.PLP.ligand.clash>
0.0000

> <Gold.PLP.ligand.torsion>
0.8888

> <Gold.PLP.Chemscore.Hbond>
0.0640

> <Gold.PLP.Chemscore.CHOScore>
0.0000

> <Gold.PLP.Chemscore.Metal>
0.0000

> <Gold.Chemscore.Hbonds>
donor molecule, donor type, donor heavy atom, donor atom, acceptor molecule, acceptor atom, score
      P1  H  1258  1270       L1    14  0.06

> <Gold.PLP.Chemscore.Internal.Correction>
0.0085

