#       Name:                EN300-57200_i001
#       Creating user name   aseyller
#       Creation time:       Fri Apr 21 18:37:39 2023


#       File generated by GOLD software.
#

@<TRIPOS>MOLECULE
EN300-57200_i001|benzaldehydes|mol2|590|dock5
    25    26     1
SMALL
USER_CHARGES


@<TRIPOS>ATOM
      1 F1          26.1058  36.3670  37.6858 F              1 <1>                0.0000
      2 C2          26.8258  36.3402  38.8287 C.ar           1 <1>                0.0000
      3 C3          26.2375  36.7113  40.0259 C.ar           1 <1>                0.0000
      4 C4          26.9738  36.6846  41.1983 C.ar           1 <1>                0.0000
      5 F5          26.3982  37.0469  42.3655 F              1 <1>                0.0000
      6 C6          28.2988  36.2864  41.1749 C.ar           1 <1>                0.0000
      7 C7          28.8894  35.9139  39.9761 C.ar           1 <1>                0.0000
      8 O8          30.1904  35.5223  39.9517 O.3            1 <1>                0.0000
      9 C9          30.8990  35.7375  38.8153 C.ar           1 <1>                0.0000
     10 C10         31.5907  34.6874  38.2204 C.ar           1 <1>                0.0000
     11 C11         32.3081  34.8995  37.0714 C.ar           1 <1>                0.0000
     12 C12         32.3438  36.1762  36.4968 C.ar           1 <1>                0.0000
     13 C13         33.1103  36.4089  35.2660 C.2            1 <1>                0.0000
     14 O14         32.9418  37.4281  34.6302 O.2            1 <1>                0.0000
     15 C15         31.6458  37.2301  37.0997 C.ar           1 <1>                0.0000
     16 C16         30.9270  37.0062  38.2456 C.ar           1 <1>                0.0000
     17 C17         28.1490  35.9367  38.8031 C.ar           1 <1>                0.0000
     18 H18         25.2035  37.0222  40.0453 H              1 <1>                0.0000
     19 H19         28.8730  36.2660  42.0894 H              1 <1>                0.0000
     20 H20         31.5628  33.7034  38.6646 H              1 <1>                0.0000
     21 H21         32.8451  34.0837  36.6105 H              1 <1>                0.0000
     22 H22         33.8239  35.6727  34.9268 H              1 <1>                0.0000
     23 H23         31.6701  38.2163  36.6603 H              1 <1>                0.0000
     24 H24         30.3880  37.8181  38.7111 H              1 <1>                0.0000
     25 H25         28.6075  35.6466  37.8692 H              1 <1>                0.0000
@<TRIPOS>BOND
    1    1    2 1     
    2    2    3 ar    
    3    2   17 ar    
    4    3    4 ar    
    5    3   18 1     
    6    4    5 1     
    7    4    6 ar    
    8    6    7 ar    
    9    6   19 1     
   10    7    8 1     
   11    7   17 ar    
   12    8    9 1     
   13    9   10 ar    
   14    9   16 ar    
   15   10   11 ar    
   16   10   20 1     
   17   11   12 ar    
   18   11   21 1     
   19   12   13 1     
   20   12   15 ar    
   21   13   14 2     
   22   13   22 1     
   23   15   16 ar    
   24   15   23 1     
   25   16   24 1     
   26   17   25 1     
@<TRIPOS>SUBSTRUCTURE
      1 ****           1
@<TRIPOS>COMMENT
> <Gold.Version>
2022.2.0

> <Gold.Id.Protein>
1qkm|1qkm_protein|mol2

> <Gold.Protein.RotatedTorsions>
[  496  491  490  487 ] final   83.87 input  -89.99 | X-H torsion

> <Gold.Protein.ActiveResidues>
 MET295  LEU298  THR299  LEU301  ALA302  GLU305  TRP335  MET336  LEU339  MET340 
 GLY342  LEU343  ARG346  PHE356  ILE373  ILE376  PHE377  LEU380  LYS471  GLY472 
 MET473  HIS475  LEU476  LEU477  ASN478  MET479  VAL484  VAL487 

> <Gold.Protein.RotatedAtoms>
   36.7636   33.0668   42.0946 H   0  0  0  0  0  0  0  0  0  0  0  0  # atno 496  bound_to 491 

> <Gold.Score>
     Score     S(PLP)   S(hbond)     S(cho)   S(metal)  DE(clash)   DE(tors)     intcor
     53.12     -54.07       0.00       0.00       0.00       0.00       0.48       0.01

> <Gold.PLP.Fitness>
53.1233

> <Gold.PLP.PLP>
-54.0688

> <Gold.PLP.part.hbond>
0.0000

> <Gold.PLP.part.metal>
0.0000

> <Gold.PLP.part.buried>
-2.6471

> <Gold.PLP.part.nonpolar>
-54.2382

> <Gold.PLP.part.repulsive>
2.8869

> <Gold.PLP.ligand.clash>
0.0000

> <Gold.PLP.ligand.torsion>
0.4770

> <Gold.PLP.Chemscore.Hbond>
0.0000

> <Gold.PLP.Chemscore.CHOScore>
0.0000

> <Gold.PLP.Chemscore.Metal>
0.0000

> <Gold.PLP.Chemscore.Internal.Correction>
0.0085

