#       Name:                EN300-57200_i001
#       Creating user name   aseyller
#       Creation time:       Fri Apr 21 18:37:40 2023


#       File generated by GOLD software.
#

@<TRIPOS>MOLECULE
EN300-57200_i001|benzaldehydes|mol2|590|dock6
    25    26     1
SMALL
USER_CHARGES


@<TRIPOS>ATOM
      1 F1          30.6957  39.5878  36.4134 F              1 <1>                0.0000
      2 C2          31.3077  38.3997  36.6118 C.ar           1 <1>                0.0000
      3 C3          32.3223  37.9937  35.7616 C.ar           1 <1>                0.0000
      4 C4          32.9506  36.7763  35.9632 C.ar           1 <1>                0.0000
      5 F5          33.9404  36.3818  35.1328 F              1 <1>                0.0000
      6 C6          32.5656  35.9641  37.0153 C.ar           1 <1>                0.0000
      7 C7          31.5495  36.3699  37.8681 C.ar           1 <1>                0.0000
      8 O8          31.1706  35.5736  38.9019 O.3            1 <1>                0.0000
      9 C9          29.9127  35.7174  39.3887 C.ar           1 <1>                0.0000
     10 C10         29.6376  36.7199  40.3130 C.ar           1 <1>                0.0000
     11 C11         28.3677  36.8697  40.8078 C.ar           1 <1>                0.0000
     12 C12         27.3468  36.0111  40.3812 C.ar           1 <1>                0.0000
     13 C13         25.9848  36.1674  40.9076 C.2            1 <1>                0.0000
     14 O14         25.7561  36.9988  41.7607 O.2            1 <1>                0.0000
     15 C15         27.6291  35.0033  39.4506 C.ar           1 <1>                0.0000
     16 C16         28.9011  34.8654  38.9579 C.ar           1 <1>                0.0000
     17 C17         30.9241  37.5920  37.6677 C.ar           1 <1>                0.0000
     18 H18         32.6236  38.6267  34.9402 H              1 <1>                0.0000
     19 H19         33.0556  35.0146  37.1720 H              1 <1>                0.0000
     20 H20         30.4257  37.3812  40.6415 H              1 <1>                0.0000
     21 H21         28.1552  37.6482  41.5256 H              1 <1>                0.0000
     22 H22         25.1868  35.5420  40.5354 H              1 <1>                0.0000
     23 H23         26.8452  34.3389  39.1185 H              1 <1>                0.0000
     24 H24         29.1198  34.0888  38.2399 H              1 <1>                0.0000
     25 H25         30.1331  37.9093  38.3311 H              1 <1>                0.0000
@<TRIPOS>BOND
    1    1    2 1     
    2    2    3 ar    
    3    2   17 ar    
    4    3    4 ar    
    5    3   18 1     
    6    4    5 1     
    7    4    6 ar    
    8    6    7 ar    
    9    6   19 1     
   10    7    8 1     
   11    7   17 ar    
   12    8    9 1     
   13    9   10 ar    
   14    9   16 ar    
   15   10   11 ar    
   16   10   20 1     
   17   11   12 ar    
   18   11   21 1     
   19   12   13 1     
   20   12   15 ar    
   21   13   14 2     
   22   13   22 1     
   23   15   16 ar    
   24   15   23 1     
   25   16   24 1     
   26   17   25 1     
@<TRIPOS>SUBSTRUCTURE
      1 ****           1
@<TRIPOS>COMMENT
> <Gold.Version>
2022.2.0

> <Gold.Id.Protein>
1qkm|1qkm_protein|mol2

> <Gold.Protein.RotatedTorsions>
[  496  491  490  487 ] final  179.94 input  -89.99 | X-H torsion

> <Gold.Protein.ActiveResidues>
 MET295  LEU298  THR299  LEU301  ALA302  GLU305  TRP335  MET336  LEU339  MET340 
 GLY342  LEU343  ARG346  PHE356  ILE373  ILE376  PHE377  LEU380  LYS471  GLY472 
 MET473  HIS475  LEU476  LEU477  ASN478  MET479  VAL484  VAL487 

> <Gold.Protein.RotatedAtoms>
   37.3179   33.4609   40.8679 H   0  0  0  0  0  0  0  0  0  0  0  0  # atno 496  bound_to 491 

> <Gold.Score>
     Score     S(PLP)   S(hbond)     S(cho)   S(metal)  DE(clash)   DE(tors)     intcor
     52.53     -54.29       0.00       0.00       0.00       0.42       0.67       0.01

> <Gold.PLP.Fitness>
52.5279

> <Gold.PLP.PLP>
-54.2879

> <Gold.PLP.part.hbond>
-0.7679

> <Gold.PLP.part.metal>
0.0000

> <Gold.PLP.part.buried>
-4.2840

> <Gold.PLP.part.nonpolar>
-50.6868

> <Gold.PLP.part.repulsive>
0.3291

> <Gold.PLP.ligand.clash>
0.4186

> <Gold.PLP.ligand.torsion>
0.6749

> <Gold.PLP.Chemscore.Hbond>
0.0000

> <Gold.PLP.Chemscore.CHOScore>
0.0000

> <Gold.PLP.Chemscore.Metal>
0.0000

> <Gold.PLP.Chemscore.Internal.Correction>
0.0085

