#       Name:                EN300-57200_i001
#       Creating user name   aseyller
#       Creation time:       Fri Apr 21 18:37:38 2023


#       File generated by GOLD software.
#

@<TRIPOS>MOLECULE
EN300-57200_i001|benzaldehydes|mol2|590|dock3
    25    26     1
SMALL
USER_CHARGES


@<TRIPOS>ATOM
      1 F1          34.0137  35.7986  37.0812 F              1 <1>                0.0000
      2 C2          32.7417  36.2017  37.2929 C.ar           1 <1>                0.0000
      3 C3          32.3286  37.4479  36.8530 C.ar           1 <1>                0.0000
      4 C4          31.0254  37.8629  37.0691 C.ar           1 <1>                0.0000
      5 F5          30.6241  39.0791  36.6392 F              1 <1>                0.0000
      6 C6          30.1338  37.0323  37.7247 C.ar           1 <1>                0.0000
      7 C7          30.5462  35.7832  38.1656 C.ar           1 <1>                0.0000
      8 O8          29.6717  34.9663  38.8092 O.3            1 <1>                0.0000
      9 C9          28.6337  35.5382  39.4692 C.ar           1 <1>                0.0000
     10 C10         27.4420  35.7933  38.7987 C.ar           1 <1>                0.0000
     11 C11         26.3898  36.3708  39.4615 C.ar           1 <1>                0.0000
     12 C12         26.5165  36.7038  40.8158 C.ar           1 <1>                0.0000
     13 C13         25.3925  37.3222  41.5306 C.2            1 <1>                0.0000
     14 O14         25.4992  37.5961  42.7075 O.2            1 <1>                0.0000
     15 C15         27.7184  36.4450  41.4863 C.ar           1 <1>                0.0000
     16 C16         28.7628  35.8624  40.8158 C.ar           1 <1>                0.0000
     17 C17         31.8510  35.3669  37.9441 C.ar           1 <1>                0.0000
     18 H18         33.0236  38.0971  36.3412 H              1 <1>                0.0000
     19 H19         29.1175  37.3564  37.8935 H              1 <1>                0.0000
     20 H20         27.3455  35.5363  37.7542 H              1 <1>                0.0000
     21 H21         25.4650  36.5687  38.9399 H              1 <1>                0.0000
     22 H22         24.4707  37.5329  41.0086 H              1 <1>                0.0000
     23 H23         27.8209  36.7000  42.5307 H              1 <1>                0.0000
     24 H24         29.6901  35.6619  41.3320 H              1 <1>                0.0000
     25 H25         32.1733  34.3946  38.2866 H              1 <1>                0.0000
@<TRIPOS>BOND
    1    1    2 1     
    2    2    3 ar    
    3    2   17 ar    
    4    3    4 ar    
    5    3   18 1     
    6    4    5 1     
    7    4    6 ar    
    8    6    7 ar    
    9    6   19 1     
   10    7    8 1     
   11    7   17 ar    
   12    8    9 1     
   13    9   10 ar    
   14    9   16 ar    
   15   10   11 ar    
   16   10   20 1     
   17   11   12 ar    
   18   11   21 1     
   19   12   13 1     
   20   12   15 ar    
   21   13   14 2     
   22   13   22 1     
   23   15   16 ar    
   24   15   23 1     
   25   16   24 1     
   26   17   25 1     
@<TRIPOS>SUBSTRUCTURE
      1 ****           1
@<TRIPOS>COMMENT
> <Gold.Version>
2022.2.0

> <Gold.Id.Protein>
1qkm|1qkm_protein|mol2

> <Gold.Protein.RotatedTorsions>
[  496  491  490  487 ] final  -50.77 input  -89.99 | X-H torsion

> <Gold.Protein.ActiveResidues>
 MET295  LEU298  THR299  LEU301  ALA302  GLU305  TRP335  MET336  LEU339  MET340 
 GLY342  LEU343  ARG346  PHE356  ILE373  ILE376  PHE377  LEU380  LYS471  GLY472 
 MET473  HIS475  LEU476  LEU477  ASN478  MET479  VAL484  VAL487 

> <Gold.Protein.RotatedAtoms>
   36.4298   34.7072   41.6185 H   0  0  0  0  0  0  0  0  0  0  0  0  # atno 496  bound_to 491 

> <Gold.Score>
     Score     S(PLP)   S(hbond)     S(cho)   S(metal)  DE(clash)   DE(tors)     intcor
     55.71     -57.40       0.00       0.00       0.00       0.24       0.73       0.01

> <Gold.PLP.Fitness>
55.7085

> <Gold.PLP.PLP>
-57.3998

> <Gold.PLP.part.hbond>
-0.1750

> <Gold.PLP.part.metal>
0.0000

> <Gold.PLP.part.buried>
-2.4970

> <Gold.PLP.part.nonpolar>
-55.7284

> <Gold.PLP.part.repulsive>
1.0147

> <Gold.PLP.ligand.clash>
0.2408

> <Gold.PLP.ligand.torsion>
0.7295

> <Gold.PLP.Chemscore.Hbond>
0.0000

> <Gold.PLP.Chemscore.CHOScore>
0.0000

> <Gold.PLP.Chemscore.Metal>
0.0000

> <Gold.PLP.Chemscore.Internal.Correction>
0.0085

