#       Name:                EN300-57200_i001
#       Creating user name   aseyller
#       Creation time:       Fri Apr 21 18:37:37 2023


#       File generated by GOLD software.
#

@<TRIPOS>MOLECULE
EN300-57200_i001|benzaldehydes|mol2|590|dock1
    25    26     1
SMALL
USER_CHARGES


@<TRIPOS>ATOM
      1 F1          29.8890  40.1518  36.4343 F              1 <1>                0.0000
      2 C2          30.4941  38.9534  36.5861 C.ar           1 <1>                0.0000
      3 C3          31.4266  38.5263  35.6559 C.ar           1 <1>                0.0000
      4 C4          32.0477  37.2984  35.8097 C.ar           1 <1>                0.0000
      5 F5          32.9573  36.8833  34.9012 F              1 <1>                0.0000
      6 C6          31.7377  36.4965  36.8939 C.ar           1 <1>                0.0000
      7 C7          30.8039  36.9233  37.8269 C.ar           1 <1>                0.0000
      8 O8          30.4987  36.1370  38.8923 O.3            1 <1>                0.0000
      9 C9          29.2698  36.2705  39.4510 C.ar           1 <1>                0.0000
     10 C10         29.1523  36.5523  40.8081 C.ar           1 <1>                0.0000
     11 C11         27.9124  36.6886  41.3775 C.ar           1 <1>                0.0000
     12 C12         26.7633  36.5433  40.5903 C.ar           1 <1>                0.0000
     13 C13         25.4329  36.6886  41.1950 C.2            1 <1>                0.0000
     14 O14         25.3030  37.2986  42.2353 O.2            1 <1>                0.0000
     15 C15         26.8871  36.2595  39.2245 C.ar           1 <1>                0.0000
     16 C16         28.1316  36.1304  38.6637 C.ar           1 <1>                0.0000
     17 C17         30.1859  38.1559  37.6740 C.ar           1 <1>                0.0000
     18 H18         31.6694  39.1513  34.8093 H              1 <1>                0.0000
     19 H19         32.2220  35.5386  37.0134 H              1 <1>                0.0000
     20 H20         30.0391  36.6638  41.4142 H              1 <1>                0.0000
     21 H21         27.8222  36.9071  42.4313 H              1 <1>                0.0000
     22 H22         24.5702  36.2523  40.7135 H              1 <1>                0.0000
     23 H23         26.0039  36.1467  38.6133 H              1 <1>                0.0000
     24 H24         28.2282  35.9119  37.6104 H              1 <1>                0.0000
     25 H25         29.4590  38.4896  38.3998 H              1 <1>                0.0000
@<TRIPOS>BOND
    1    1    2 1     
    2    2    3 ar    
    3    2   17 ar    
    4    3    4 ar    
    5    3   18 1     
    6    4    5 1     
    7    4    6 ar    
    8    6    7 ar    
    9    6   19 1     
   10    7    8 1     
   11    7   17 ar    
   12    8    9 1     
   13    9   10 ar    
   14    9   16 ar    
   15   10   11 ar    
   16   10   20 1     
   17   11   12 ar    
   18   11   21 1     
   19   12   13 1     
   20   12   15 ar    
   21   13   14 2     
   22   13   22 1     
   23   15   16 ar    
   24   15   23 1     
   25   16   24 1     
   26   17   25 1     
@<TRIPOS>SUBSTRUCTURE
      1 ****           1
@<TRIPOS>COMMENT
> <Gold.Version>
2022.2.0

> <Gold.Id.Protein>
1qkm|1qkm_protein|mol2

> <Gold.Protein.RotatedTorsions>
[  496  491  490  487 ] final -129.85 input  -89.99 | X-H torsion

> <Gold.Protein.ActiveResidues>
 MET295  LEU298  THR299  LEU301  ALA302  GLU305  TRP335  MET336  LEU339  MET340 
 GLY342  LEU343  ARG346  PHE356  ILE373  ILE376  PHE377  LEU380  LYS471  GLY472 
 MET473  HIS475  LEU476  LEU477  ASN478  MET479  VAL484  VAL487 

> <Gold.Protein.RotatedAtoms>
   37.1036   34.2230   40.7505 H   0  0  0  0  0  0  0  0  0  0  0  0  # atno 496  bound_to 491 

> <Gold.Score>
     Score     S(PLP)   S(hbond)     S(cho)   S(metal)  DE(clash)   DE(tors)     intcor
     60.34     -60.99       0.13       0.00       0.00       0.07       0.49       0.01

> <Gold.PLP.Fitness>
60.3361

> <Gold.PLP.PLP>
-60.9866

> <Gold.PLP.part.hbond>
-0.5543

> <Gold.PLP.part.metal>
0.0000

> <Gold.PLP.part.buried>
-4.5149

> <Gold.PLP.part.nonpolar>
-56.6470

> <Gold.PLP.part.repulsive>
0.3523

> <Gold.PLP.ligand.clash>
0.0698

> <Gold.PLP.ligand.torsion>
0.4866

> <Gold.PLP.Chemscore.Hbond>
0.1280

> <Gold.PLP.Chemscore.CHOScore>
0.0000

> <Gold.PLP.Chemscore.Metal>
0.0000

> <Gold.Chemscore.Hbonds>
donor molecule, donor type, donor heavy atom, donor atom, acceptor molecule, acceptor atom, score
      P1  H  1258  1270       L1    14  0.13

> <Gold.PLP.Chemscore.Internal.Correction>
0.0085

