#       Name:                EN300-57200_i001
#       Creating user name   aseyller
#       Creation time:       Fri Apr 21 18:37:50 2023


#       File generated by GOLD software.
#

@<TRIPOS>MOLECULE
EN300-57200_i001|benzaldehydes|mol2|590|dock19
    25    26     1
SMALL
USER_CHARGES


@<TRIPOS>ATOM
      1 F1          31.5050  40.0382  35.7547 F              1 <1>                0.0000
      2 C2          31.2783  38.8271  36.3088 C.ar           1 <1>                0.0000
      3 C3          32.3373  38.0802  36.7966 C.ar           1 <1>                0.0000
      4 C4          32.1070  36.8387  37.3648 C.ar           1 <1>                0.0000
      5 F5          33.1414  36.1114  37.8402 F              1 <1>                0.0000
      6 C6          30.8177  36.3429  37.4465 C.ar           1 <1>                0.0000
      7 C7          29.7557  37.0903  36.9586 C.ar           1 <1>                0.0000
      8 O8          28.4890  36.6049  37.0385 O.3            1 <1>                0.0000
      9 C9          27.8443  36.7004  38.2281 C.ar           1 <1>                0.0000
     10 C10         26.6164  37.3500  38.3008 C.ar           1 <1>                0.0000
     11 C11         25.9604  37.4489  39.5008 C.ar           1 <1>                0.0000
     12 C12         26.5289  36.8945  40.6544 C.ar           1 <1>                0.0000
     13 C13         25.8304  36.9971  41.9422 C.2            1 <1>                0.0000
     14 O14         24.6558  36.7046  42.0200 O.2            1 <1>                0.0000
     15 C15         27.7654  36.2416  40.5759 C.ar           1 <1>                0.0000
     16 C16         28.4106  36.1436  39.3701 C.ar           1 <1>                0.0000
     17 C17         29.9875  38.3361  36.3938 C.ar           1 <1>                0.0000
     18 H18         33.3440  38.4662  36.7334 H              1 <1>                0.0000
     19 H19         30.6384  35.3744  37.8894 H              1 <1>                0.0000
     20 H20         26.1791  37.7774  37.4107 H              1 <1>                0.0000
     21 H21         25.0073  37.9537  39.5563 H              1 <1>                0.0000
     22 H22         26.3625  37.3331  42.8199 H              1 <1>                0.0000
     23 H23         28.2077  35.8124  41.4627 H              1 <1>                0.0000
     24 H24         29.3640  35.6399  39.3083 H              1 <1>                0.0000
     25 H25         29.1615  38.9192  36.0139 H              1 <1>                0.0000
@<TRIPOS>BOND
    1    1    2 1     
    2    2    3 ar    
    3    2   17 ar    
    4    3    4 ar    
    5    3   18 1     
    6    4    5 1     
    7    4    6 ar    
    8    6    7 ar    
    9    6   19 1     
   10    7    8 1     
   11    7   17 ar    
   12    8    9 1     
   13    9   10 ar    
   14    9   16 ar    
   15   10   11 ar    
   16   10   20 1     
   17   11   12 ar    
   18   11   21 1     
   19   12   13 1     
   20   12   15 ar    
   21   13   14 2     
   22   13   22 1     
   23   15   16 ar    
   24   15   23 1     
   25   16   24 1     
   26   17   25 1     
@<TRIPOS>SUBSTRUCTURE
      1 ****           1
@<TRIPOS>COMMENT
> <Gold.Version>
2022.2.0

> <Gold.Id.Protein>
1qkm|1qkm_protein|mol2

> <Gold.Protein.RotatedTorsions>
[  496  491  490  487 ] final  -37.49 input  -89.99 | X-H torsion

> <Gold.Protein.ActiveResidues>
 MET295  LEU298  THR299  LEU301  ALA302  GLU305  TRP335  MET336  LEU339  MET340 
 GLY342  LEU343  ARG346  PHE356  ILE373  ILE376  PHE377  LEU380  LYS471  GLY472 
 MET473  HIS475  LEU476  LEU477  ASN478  MET479  VAL484  VAL487 

> <Gold.Protein.RotatedAtoms>
   36.3498   34.6324   41.8072 H   0  0  0  0  0  0  0  0  0  0  0  0  # atno 496  bound_to 491 

> <Gold.Score>
     Score     S(PLP)   S(hbond)     S(cho)   S(metal)  DE(clash)   DE(tors)     intcor
     44.92     -44.41       0.64       0.00       0.00       0.00       0.71       0.00

> <Gold.PLP.Fitness>
44.9204

> <Gold.PLP.PLP>
-44.4127

> <Gold.PLP.part.hbond>
-0.2886

> <Gold.PLP.part.metal>
0.0000

> <Gold.PLP.part.buried>
1.4768

> <Gold.PLP.part.nonpolar>
-47.6746

> <Gold.PLP.part.repulsive>
0.5042

> <Gold.PLP.ligand.clash>
0.0000

> <Gold.PLP.ligand.torsion>
0.7070

> <Gold.PLP.Chemscore.Hbond>
0.6400

> <Gold.PLP.Chemscore.CHOScore>
0.0000

> <Gold.PLP.Chemscore.Metal>
0.0000

> <Gold.Chemscore.Hbonds>
donor molecule, donor type, donor heavy atom, donor atom, acceptor molecule, acceptor atom, score
      P1  H  1258  1270       L1    14  0.64

> <Gold.PLP.Chemscore.Internal.Correction>
0.0018

