#       Name:                EN300-57200_i001
#       Creating user name   aseyller
#       Creation time:       Fri Apr 21 18:37:47 2023


#       File generated by GOLD software.
#

@<TRIPOS>MOLECULE
EN300-57200_i001|benzaldehydes|mol2|590|dock15
    25    26     1
SMALL
USER_CHARGES


@<TRIPOS>ATOM
      1 F1          29.8207  40.8570  36.0150 F              1 <1>                0.0000
      2 C2          30.4515  39.6623  36.0201 C.ar           1 <1>                0.0000
      3 C3          31.1385  39.2378  34.8954 C.ar           1 <1>                0.0000
      4 C4          31.7856  38.0137  34.8987 C.ar           1 <1>                0.0000
      5 F5          32.4555  37.6011  33.8005 F              1 <1>                0.0000
      6 C6          31.7470  37.2130  36.0267 C.ar           1 <1>                0.0000
      7 C7          31.0594  37.6373  37.1544 C.ar           1 <1>                0.0000
      8 O8          31.0210  36.8523  38.2629 O.3            1 <1>                0.0000
      9 C9          29.8373  36.7263  38.9133 C.ar           1 <1>                0.0000
     10 C10         29.8136  36.6571  40.3024 C.ar           1 <1>                0.0000
     11 C11         28.6198  36.5302  40.9646 C.ar           1 <1>                0.0000
     12 C12         27.4229  36.4702  40.2399 C.ar           1 <1>                0.0000
     13 C13         26.1413  36.3347  40.9442 C.2            1 <1>                0.0000
     14 O14         25.1950  37.0203  40.6187 O.2            1 <1>                0.0000
     15 C15         27.4521  36.5402  38.8415 C.ar           1 <1>                0.0000
     16 C16         28.6508  36.6724  38.1892 C.ar           1 <1>                0.0000
     17 C17         30.4155  38.8661  37.1512 C.ar           1 <1>                0.0000
     18 H18         31.1694  39.8619  34.0146 H              1 <1>                0.0000
     19 H19         32.2515  36.2581  36.0289 H              1 <1>                0.0000
     20 H20         30.7372  36.7031  40.8602 H              1 <1>                0.0000
     21 H21         28.6025  36.4762  42.0431 H              1 <1>                0.0000
     22 H22         26.0414  35.6248  41.7520 H              1 <1>                0.0000
     23 H23         26.5318  36.4945  38.2783 H              1 <1>                0.0000
     24 H24         28.6745  36.7269  37.1108 H              1 <1>                0.0000
     25 H25         29.8802  39.1978  38.0286 H              1 <1>                0.0000
@<TRIPOS>BOND
    1    1    2 1     
    2    2    3 ar    
    3    2   17 ar    
    4    3    4 ar    
    5    3   18 1     
    6    4    5 1     
    7    4    6 ar    
    8    6    7 ar    
    9    6   19 1     
   10    7    8 1     
   11    7   17 ar    
   12    8    9 1     
   13    9   10 ar    
   14    9   16 ar    
   15   10   11 ar    
   16   10   20 1     
   17   11   12 ar    
   18   11   21 1     
   19   12   13 1     
   20   12   15 ar    
   21   13   14 2     
   22   13   22 1     
   23   15   16 ar    
   24   15   23 1     
   25   16   24 1     
   26   17   25 1     
@<TRIPOS>SUBSTRUCTURE
      1 ****           1
@<TRIPOS>COMMENT
> <Gold.Version>
2022.2.0

> <Gold.Id.Protein>
1qkm|1qkm_protein|mol2

> <Gold.Protein.RotatedTorsions>
[  496  491  490  487 ] final   90.93 input  -89.99 | X-H torsion

> <Gold.Protein.ActiveResidues>
 MET295  LEU298  THR299  LEU301  ALA302  GLU305  TRP335  MET336  LEU339  MET340 
 GLY342  LEU343  ARG346  PHE356  ILE373  ILE376  PHE377  LEU380  LYS471  GLY472 
 MET473  HIS475  LEU476  LEU477  ASN478  MET479  VAL484  VAL487 

> <Gold.Protein.RotatedAtoms>
   36.8289   33.0159   42.0130 H   0  0  0  0  0  0  0  0  0  0  0  0  # atno 496  bound_to 491 

> <Gold.Score>
     Score     S(PLP)   S(hbond)     S(cho)   S(metal)  DE(clash)   DE(tors)     intcor
     49.22     -51.07       0.00       0.00       0.00       0.00       0.92       0.00

> <Gold.PLP.Fitness>
49.2224

> <Gold.PLP.PLP>
-51.0679

> <Gold.PLP.part.hbond>
0.0000

> <Gold.PLP.part.metal>
0.0000

> <Gold.PLP.part.buried>
-0.6230

> <Gold.PLP.part.nonpolar>
-53.2444

> <Gold.PLP.part.repulsive>
0.9544

> <Gold.PLP.ligand.clash>
0.0000

> <Gold.PLP.ligand.torsion>
0.9236

> <Gold.PLP.Chemscore.Hbond>
0.0000

> <Gold.PLP.Chemscore.CHOScore>
0.0000

> <Gold.PLP.Chemscore.Metal>
0.0000

> <Gold.PLP.Chemscore.Internal.Correction>
0.0018

