#       Name:                EN300-57200_i001
#       Creating user name   aseyller
#       Creation time:       Fri Apr 21 18:37:39 2023


#       File generated by GOLD software.
#

@<TRIPOS>MOLECULE
EN300-57200_i001|benzaldehydes|mol2|590|dock4
    25    26     1
SMALL
USER_CHARGES


@<TRIPOS>ATOM
      1 F1          29.3542  40.9212  36.5976 F              1 <1>                0.0000
      2 C2          29.8811  39.6932  36.3978 C.ar           1 <1>                0.0000
      3 C3          30.7263  39.4694  35.3241 C.ar           1 <1>                0.0000
      4 C4          31.2672  38.2116  35.1177 C.ar           1 <1>                0.0000
      5 F5          32.0917  37.9949  34.0697 F              1 <1>                0.0000
      6 C6          30.9642  37.1766  35.9847 C.ar           1 <1>                0.0000
      7 C7          30.1179  37.3996  37.0611 C.ar           1 <1>                0.0000
      8 O8          29.8197  36.3843  37.9135 O.3            1 <1>                0.0000
      9 C9          28.7433  36.5302  38.7259 C.ar           1 <1>                0.0000
     10 C10         28.9100  36.5149  40.1069 C.ar           1 <1>                0.0000
     11 C11         27.8252  36.6624  40.9324 C.ar           1 <1>                0.0000
     12 C12         26.5478  36.8285  40.3829 C.ar           1 <1>                0.0000
     13 C13         25.3825  36.9873  41.2625 C.2            1 <1>                0.0000
     14 O14         25.5006  37.5519  42.3296 O.2            1 <1>                0.0000
     15 C15         26.3853  36.8431  38.9920 C.ar           1 <1>                0.0000
     16 C16         27.4772  36.7001  38.1753 C.ar           1 <1>                0.0000
     17 C17         29.5804  38.6615  37.2693 C.ar           1 <1>                0.0000
     18 H18         30.9635  40.2764  34.6469 H              1 <1>                0.0000
     19 H19         31.3859  36.1956  35.8232 H              1 <1>                0.0000
     20 H20         29.8955  36.3865  40.5294 H              1 <1>                0.0000
     21 H21         27.9556  36.6501  42.0044 H              1 <1>                0.0000
     22 H22         24.4204  36.6014  40.9594 H              1 <1>                0.0000
     23 H23         25.4022  36.9709  38.5636 H              1 <1>                0.0000
     24 H24         27.3531  36.7116  37.1024 H              1 <1>                0.0000
     25 H25         28.9217  38.8366  38.1072 H              1 <1>                0.0000
@<TRIPOS>BOND
    1    1    2 1     
    2    2    3 ar    
    3    2   17 ar    
    4    3    4 ar    
    5    3   18 1     
    6    4    5 1     
    7    4    6 ar    
    8    6    7 ar    
    9    6   19 1     
   10    7    8 1     
   11    7   17 ar    
   12    8    9 1     
   13    9   10 ar    
   14    9   16 ar    
   15   10   11 ar    
   16   10   20 1     
   17   11   12 ar    
   18   11   21 1     
   19   12   13 1     
   20   12   15 ar    
   21   13   14 2     
   22   13   22 1     
   23   15   16 ar    
   24   15   23 1     
   25   16   24 1     
   26   17   25 1     
@<TRIPOS>SUBSTRUCTURE
      1 ****           1
@<TRIPOS>COMMENT
> <Gold.Version>
2022.2.0

> <Gold.Id.Protein>
1qkm|1qkm_protein|mol2

> <Gold.Protein.RotatedTorsions>
[  496  491  490  487 ] final -164.89 input  -89.99 | X-H torsion

> <Gold.Protein.ActiveResidues>
 MET295  LEU298  THR299  LEU301  ALA302  GLU305  TRP335  MET336  LEU339  MET340 
 GLY342  LEU343  ARG346  PHE356  ILE373  ILE376  PHE377  LEU380  LYS471  GLY472 
 MET473  HIS475  LEU476  LEU477  ASN478  MET479  VAL484  VAL487 

> <Gold.Protein.RotatedAtoms>
   37.2914   33.6872   40.7679 H   0  0  0  0  0  0  0  0  0  0  0  0  # atno 496  bound_to 491 

> <Gold.Score>
     Score     S(PLP)   S(hbond)     S(cho)   S(metal)  DE(clash)   DE(tors)     intcor
     57.66     -59.86       0.00       0.00       0.00       1.30       0.45       0.01

> <Gold.PLP.Fitness>
57.6645

> <Gold.PLP.PLP>
-59.8597

> <Gold.PLP.part.hbond>
-0.7633

> <Gold.PLP.part.metal>
0.0000

> <Gold.PLP.part.buried>
-3.3151

> <Gold.PLP.part.nonpolar>
-56.3697

> <Gold.PLP.part.repulsive>
0.2610

> <Gold.PLP.ligand.clash>
1.3046

> <Gold.PLP.ligand.torsion>
0.4496

> <Gold.PLP.Chemscore.Hbond>
0.0000

> <Gold.PLP.Chemscore.CHOScore>
0.0000

> <Gold.PLP.Chemscore.Metal>
0.0000

> <Gold.PLP.Chemscore.Internal.Correction>
0.0085

