#       Name:                EN300-57200_i001
#       Creating user name   aseyller
#       Creation time:       Fri Apr 21 18:37:37 2023


#       File generated by GOLD software.
#

@<TRIPOS>MOLECULE
EN300-57200_i001|benzaldehydes|mol2|590|dock2
    25    26     1
SMALL
USER_CHARGES


@<TRIPOS>ATOM
      1 F1          31.9426  33.3950  38.5309 F              1 <1>                0.0000
      2 C2          31.8604  34.6090  37.9438 C.ar           1 <1>                0.0000
      3 C3          32.6181  34.8861  36.8184 C.ar           1 <1>                0.0000
      4 C4          32.5352  36.1298  36.2154 C.ar           1 <1>                0.0000
      5 F5          33.2751  36.3984  35.1175 F              1 <1>                0.0000
      6 C6          31.6944  37.0974  36.7364 C.ar           1 <1>                0.0000
      7 C7          30.9345  36.8210  37.8636 C.ar           1 <1>                0.0000
      8 O8          30.1081  37.7701  38.3762 O.3            1 <1>                0.0000
      9 C9          29.0203  37.3580  39.0740 C.ar           1 <1>                0.0000
     10 C10         29.1540  36.9784  40.4056 C.ar           1 <1>                0.0000
     11 C11         28.0576  36.5614  41.1154 C.ar           1 <1>                0.0000
     12 C12         26.8015  36.5180  40.4975 C.ar           1 <1>                0.0000
     13 C13         25.6238  36.0726  41.2533 C.2            1 <1>                0.0000
     14 O14         24.9082  36.8875  41.7968 O.2            1 <1>                0.0000
     15 C15         26.6723  36.9012  39.1567 C.ar           1 <1>                0.0000
     16 C16         27.7740  37.3216  38.4573 C.ar           1 <1>                0.0000
     17 C17         31.0150  35.5729  38.4640 C.ar           1 <1>                0.0000
     18 H18         33.2745  34.1317  36.4109 H              1 <1>                0.0000
     19 H19         31.6303  38.0675  36.2661 H              1 <1>                0.0000
     20 H20         30.1231  37.0119  40.8809 H              1 <1>                0.0000
     21 H21         28.1625  36.2666  42.1491 H              1 <1>                0.0000
     22 H22         25.3948  35.0196  41.3254 H              1 <1>                0.0000
     23 H23         25.7058  36.8695  38.6759 H              1 <1>                0.0000
     24 H24         27.6754  37.6177  37.4233 H              1 <1>                0.0000
     25 H25         30.4236  35.3563  39.3414 H              1 <1>                0.0000
@<TRIPOS>BOND
    1    1    2 1     
    2    2    3 ar    
    3    2   17 ar    
    4    3    4 ar    
    5    3   18 1     
    6    4    5 1     
    7    4    6 ar    
    8    6    7 ar    
    9    6   19 1     
   10    7    8 1     
   11    7   17 ar    
   12    8    9 1     
   13    9   10 ar    
   14    9   16 ar    
   15   10   11 ar    
   16   10   20 1     
   17   11   12 ar    
   18   11   21 1     
   19   12   13 1     
   20   12   15 ar    
   21   13   14 2     
   22   13   22 1     
   23   15   16 ar    
   24   15   23 1     
   25   16   24 1     
   26   17   25 1     
@<TRIPOS>SUBSTRUCTURE
      1 ****           1
@<TRIPOS>COMMENT
> <Gold.Version>
2022.2.0

> <Gold.Id.Protein>
1qkm|1qkm_protein|mol2

> <Gold.Protein.RotatedTorsions>
[  496  491  490  487 ] final   12.51 input  -89.99 | X-H torsion

> <Gold.Protein.ActiveResidues>
 MET295  LEU298  THR299  LEU301  ALA302  GLU305  TRP335  MET336  LEU339  MET340 
 GLY342  LEU343  ARG346  PHE356  ILE373  ILE376  PHE377  LEU380  LYS471  GLY472 
 MET473  HIS475  LEU476  LEU477  ASN478  MET479  VAL484  VAL487 

> <Gold.Protein.RotatedAtoms>
   36.2791   34.0279   42.3222 H   0  0  0  0  0  0  0  0  0  0  0  0  # atno 496  bound_to 491 

> <Gold.Score>
     Score     S(PLP)   S(hbond)     S(cho)   S(metal)  DE(clash)   DE(tors)     intcor
     60.29     -61.76       0.50       0.00       0.00       0.17       1.40       0.01

> <Gold.PLP.Fitness>
60.2895

> <Gold.PLP.PLP>
-61.7628

> <Gold.PLP.part.hbond>
-1.0000

> <Gold.PLP.part.metal>
0.0000

> <Gold.PLP.part.buried>
-3.1674

> <Gold.PLP.part.nonpolar>
-58.1468

> <Gold.PLP.part.repulsive>
0.2918

> <Gold.PLP.ligand.clash>
0.1665

> <Gold.PLP.ligand.torsion>
1.4016

> <Gold.PLP.Chemscore.Hbond>
0.4960

> <Gold.PLP.Chemscore.CHOScore>
0.0000

> <Gold.PLP.Chemscore.Metal>
0.0000

> <Gold.Chemscore.Hbonds>
donor molecule, donor type, donor heavy atom, donor atom, acceptor molecule, acceptor atom, score
      P1  H  1258  1270       L1    14  0.50

> <Gold.PLP.Chemscore.Internal.Correction>
0.0085

