#       Name:                plp ligand
#       Creating user name   aseyller
#       Creation time:       Fri Apr 21 18:37:36 2023


#       File generated by GOLD software.
#

@<TRIPOS>MOLECULE
plp ligand
    25    26     1
SMALL
USER_CHARGES


@<TRIPOS>ATOM
      1 F1           5.3295  -0.7633   0.2346 NONPOLAR       1 <1>                0.0000
      2 C2           4.0673  -0.2864   0.1658 NONPOLAR       1 <1>                0.0000
      3 C3           3.8468   1.0780   0.0826 NONPOLAR       1 <1>                0.0000
      4 C4           2.5539   1.5687   0.0121 NONPOLAR       1 <1>                0.0000
      5 F5           2.3406   2.9002  -0.0691 NONPOLAR       1 <1>                0.0000
      6 C6           1.4803   0.6958   0.0241 NONPOLAR       1 <1>                0.0000
      7 C7           1.6998  -0.6715   0.1070 NONPOLAR       1 <1>                0.0000
      8 O8           0.6465  -1.5299   0.1185 ACCEPTOR       1 <1>                0.0000
      9 C9          -0.6023  -1.0068   0.0351 NONPOLAR       1 <1>                0.0000
     10 C10         -1.1917  -0.8150  -1.2102 NONPOLAR       1 <1>                0.0000
     11 C11         -2.4539  -0.2870  -1.2999 NONPOLAR       1 <1>                0.0000
     12 C12         -3.1497   0.0594  -0.1349 NONPOLAR       1 <1>                0.0000
     13 C13         -4.5020   0.6249  -0.2252 NONPOLAR       1 <1>                0.0000
     14 O14         -5.1029   0.9242   0.7851 ACCEPTOR       1 <1>                0.0000
     15 C15         -2.5518  -0.1356   1.1164 NONPOLAR       1 <1>                0.0000
     16 C16         -1.2913  -0.6692   1.1954 NONPOLAR       1 <1>                0.0000
     17 C17          2.9959  -1.1619   0.1728 NONPOLAR       1 <1>                0.0000
     18 H18          4.6839   1.7602   0.0731                1 <1>                0.0000
     19 H19          0.4720   1.0788  -0.0305                1 <1>                0.0000
     20 H20         -0.6541  -1.0822  -2.1079                1 <1>                0.0000
     21 H21         -2.9105  -0.1382  -2.2672                1 <1>                0.0000
     22 H22         -4.9616   0.7742  -1.1911                1 <1>                0.0000
     23 H23         -3.0844   0.1299   2.0176                1 <1>                0.0000
     24 H24         -0.8294  -0.8204   2.1599                1 <1>                0.0000
     25 H25          3.1682  -2.2262   0.2370                1 <1>                0.0000
@<TRIPOS>BOND
    1    1    2 1     
    2    2    3 ar    
    3    2   17 ar    
    4    3    4 ar    
    5    3   18 1     
    6    4    5 1     
    7    4    6 ar    
    8    6    7 ar    
    9    6   19 1     
   10    7    8 1     
   11    7   17 ar    
   12    8    9 1     
   13    9   10 ar    
   14    9   16 ar    
   15   10   11 ar    
   16   10   20 1     
   17   11   12 ar    
   18   11   21 1     
   19   12   13 1     
   20   12   15 ar    
   21   13   14 2     
   22   13   22 1     
   23   15   16 ar    
   24   15   23 1     
   25   16   24 1     
   26   17   25 1     
@<TRIPOS>SUBSTRUCTURE
      1 ****           1
@<TRIPOS>SET
DONOR_HYDROGENS      STATIC     ATOMS    <user>   **** ""
0
ATOM$RED        STATIC     ATOMS    COLORGROUP SYSTEM
0
