#       Name:                EN300-136798_i002
#       Creating user name   fsindt
#       Creation time:       Mon Feb 27 21:37:27 2023


#       File generated by GOLD software.
#

@<TRIPOS>MOLECULE
EN300-136798_i002|amine_3|mol2|877|dock16
    30    31     1
SMALL
USER_CHARGES


@<TRIPOS>ATOM
      1 C1          -4.0600 -10.2502  10.1804 C.3            1 <1>                0.0000
      2 O2          -3.1788 -11.3744   9.9197 O.3            1 <1>                0.0000
      3 C3          -2.0504 -11.4501  10.6523 C.2            1 <1>                0.0000
      4 O4          -1.8403 -10.6364  11.5301 O.2            1 <1>                0.0000
      5 C5          -1.0710 -12.5195  10.3891 C.2            1 <1>                0.0000
      6 C6          -0.7293 -13.5207  11.2543 C.2            1 <1>                0.0000
      7 N7           0.1919 -14.2800  10.6285 N.pl3          1 <1>                0.0000
      8 N8           0.3961 -13.7103   9.3637 N.2            1 <1>                0.0000
      9 N9          -0.3670 -12.6789   9.2549 N.2            1 <1>                0.0000
     10 C10          0.8530 -15.4714  11.1665 C.3            1 <1>                0.0000
     11 C11          1.2620 -15.2168  12.6201 C.3            1 <1>                0.0000
     12 C12          1.8810 -16.4932  13.1970 C.3            1 <1>                0.0000
     13 C13          0.8786 -17.6423  13.0695 C.3            1 <1>                0.0000
     14 N14          0.5480 -17.8532  11.6550 N.4            1 <1>                1.0000
     15 C15         -0.1113 -16.6584  11.1141 C.3            1 <1>                0.0000
     16 H16         -4.9285 -10.3097   9.5245 H              1 <1>                0.0000
     17 H17         -4.3870 -10.2784  11.2199 H              1 <1>                0.0000
     18 H18         -3.5259  -9.3188   9.9926 H              1 <1>                0.0000
     19 H19         -1.1214 -13.6738  12.2488 H              1 <1>                0.0000
     20 H20          1.7394 -15.6952  10.5728 H              1 <1>                0.0000
     21 H21          1.9925 -14.4086  12.6570 H              1 <1>                0.0000
     22 H22          0.3831 -14.9421  13.2033 H              1 <1>                0.0000
     23 H23          2.7886 -16.7390  12.6458 H              1 <1>                0.0000
     24 H24          2.1239 -16.3371  14.2482 H              1 <1>                0.0000
     25 H25          1.3160 -18.5526  13.4795 H              1 <1>                0.0000
     26 H26         -0.0284 -17.3957  13.6213 H              1 <1>                0.0000
     27 H27         -0.9972 -16.4327  11.7077 H              1 <1>                0.0000
     28 H28         -0.4046 -16.8423  10.0807 H              1 <1>                0.0000
     29 H29          1.3943 -18.0332  11.1360 H              1 <1>                0.0000
     30 H30         -0.0713 -18.6453  11.5699 H              1 <1>                0.0000
@<TRIPOS>BOND
    1    1    2 1     
    2    1   16 1     
    3    1   17 1     
    4    1   18 1     
    5    2    3 1     
    6    3    4 2     
    7    3    5 1     
    8    5    6 2     
    9    5    9 1     
   10    6    7 1     
   11    6   19 1     
   12    7    8 1     
   13    7   10 1     
   14    8    9 2     
   15   10   11 1     
   16   10   15 1     
   17   10   20 1     
   18   11   12 1     
   19   11   21 1     
   20   11   22 1     
   21   12   13 1     
   22   12   23 1     
   23   12   24 1     
   24   13   14 1     
   25   13   25 1     
   26   13   26 1     
   27   14   15 1     
   28   14   29 1     
   29   14   30 1     
   30   15   27 1     
   31   15   28 1     
@<TRIPOS>SUBSTRUCTURE
      1 ****           1
@<TRIPOS>SET
DONOR_HYDROGENS      STATIC     ATOMS    <user>   **** ""
2 29 30
ATOM$RED        STATIC     ATOMS    COLORGROUP SYSTEM
2 29 30
@<TRIPOS>COMMENT
> <Gold.Version>
2022.2.0

> <Gold.Id.Protein>
3pbl|protein|mol2

> <Gold.Protein.RotatedTorsions>
[ 1303 1298 1297 1294 ] final -123.06 input  179.99 | X-H torsion
[ 2461 2456 2455 2452 ] final  -56.88 input   30.03 | X-H torsion
[ 2515 2510 2509 2506 ] final   97.40 input  -89.99 | X-H torsion
[ 3721 3712 3711 3710 ] final   22.51 input -179.91 | X-H torsion
[ 3841 3832 3831 3830 ] final  152.50 input -179.91 | X-H torsion
[ 3767 3762 3761 3758 ] final  142.75 input  -89.99 | X-H torsion
[ 2472 2467 2466 2463 ] final -134.55 input  -89.97 | X-H torsion

> <Gold.Protein.ActiveResidues>
 VAL82   VAL86   LEU89   PHE106  VAL107  ASP110  VAL111  MET112  CYS114  THR115 
 CYS181  SER182  ILE183  PHE188  VAL189  ILE190  SER192  SER193  SER196  TRP342 
 PHE345  PHE346  HIS349  VAL350  TYR365  THR369  GLY372  TYR373 

> <Gold.Protein.RotatedAtoms>
    4.2747   -8.4756    4.1227 H   0  0  0  0  0  0  0  0  0  0  0  0  # atno 1303 bound_to 1298
    0.3866   -8.5225    7.3359 H   0  0  0  0  0  0  0  0  0  0  0  0  # atno 2461 bound_to 2456
   -4.7387   -5.4624    9.4133 H   0  0  0  0  0  0  0  0  0  0  0  0  # atno 2472 bound_to 2467
    2.0329   -7.8296    5.9145 H   0  0  0  0  0  0  0  0  0  0  0  0  # atno 2515 bound_to 2510
   -2.4726  -18.0328   13.9132 H   0  0  0  0  0  0  0  0  0  0  0  0  # atno 3721 bound_to 3712
   -3.9075  -22.9780   11.2064 H   0  0  0  0  0  0  0  0  0  0  0  0  # atno 3767 bound_to 3762
    3.1174  -20.3764    8.6048 H   0  0  0  0  0  0  0  0  0  0  0  0  # atno 3841 bound_to 3832
    4.7158   -9.8138    4.9480 LP  0  0  0  0  0  0  0  0  0  0  0  0  # atno 4297 bound_to 1298
    3.3716   -9.8322    4.0210 LP  0  0  0  0  0  0  0  0  0  0  0  0  # atno 4298 bound_to 1298
    1.4019   -9.2327    8.3999 LP  0  0  0  0  0  0  0  0  0  0  0  0  # atno 4299 bound_to 2456
    1.9490   -8.0529    7.4122 LP  0  0  0  0  0  0  0  0  0  0  0  0  # atno 4300 bound_to 2456
    2.6819   -7.9132    4.4186 LP  0  0  0  0  0  0  0  0  0  0  0  0  # atno 4301 bound_to 2510
    2.5821   -9.2565    5.3417 LP  0  0  0  0  0  0  0  0  0  0  0  0  # atno 4302 bound_to 2510
   -3.2908  -16.9071   14.7139 LP  0  0  0  0  0  0  0  0  0  0  0  0  # atno 4306 bound_to 3712
   -3.3822  -17.0001   13.0861 LP  0  0  0  0  0  0  0  0  0  0  0  0  # atno 4307 bound_to 3712
    1.9624  -20.9754    9.5446 LP  0  0  0  0  0  0  0  0  0  0  0  0  # atno 4314 bound_to 3832
    1.6658  -19.6921    8.5792 LP  0  0  0  0  0  0  0  0  0  0  0  0  # atno 4315 bound_to 3832
   -5.0761  -22.9825   10.0656 LP  0  0  0  0  0  0  0  0  0  0  0  0  # atno 4318 bound_to 3762
   -5.1435  -21.9147   11.2992 LP  0  0  0  0  0  0  0  0  0  0  0  0  # atno 4319 bound_to 3762
   -5.2884   -4.9943    7.9486 LP  0  0  0  0  0  0  0  0  0  0  0  0  # atno 4320 bound_to 2467
   -3.6899   -4.9369    8.2774 LP  0  0  0  0  0  0  0  0  0  0  0  0  # atno 4321 bound_to 2467

> <Gold.Score>
     Score     S(PLP)   S(hbond)     S(cho)   S(metal)  DE(clash)   DE(tors)     intcor
     39.81     -37.16       2.00       0.00       0.00       0.00       1.67       0.00

> <Gold.PLP.Fitness>
39.8145

> <Gold.PLP.PLP>
-37.1556

> <Gold.PLP.part.hbond>
-1.0000

> <Gold.PLP.part.metal>
0.0000

> <Gold.PLP.part.buried>
-4.7693

> <Gold.PLP.part.nonpolar>
-33.0161

> <Gold.PLP.part.repulsive>
0.0875

> <Gold.PLP.ligand.clash>
0.0000

> <Gold.PLP.ligand.torsion>
1.6707

> <Gold.PLP.Chemscore.Hbond>
2.0000

> <Gold.PLP.Chemscore.CHOScore>
0.0000

> <Gold.PLP.Chemscore.Metal>
0.0000

> <Gold.Chemscore.Hbonds>
donor molecule, donor type, donor heavy atom, donor atom, acceptor molecule, acceptor atom, score
      L1  H    14    29       P1  1227  2.00

> <Gold.PLP.Chemscore.Internal.Correction>
0.0002

