#       Name:                EN300-136798_i002
#       Creating user name   fsindt
#       Creation time:       Mon Feb 27 21:37:27 2023


#       File generated by GOLD software.
#

@<TRIPOS>MOLECULE
EN300-136798_i002|amine_3|mol2|877|dock15
    30    31     1
SMALL
USER_CHARGES


@<TRIPOS>ATOM
      1 C1           0.8999 -18.2255  15.0204 C.3            1 <1>                0.0000
      2 O2           0.8591 -17.0515  14.1669 O.3            1 <1>                0.0000
      3 C3          -0.0048 -17.0765  13.1331 C.2            1 <1>                0.0000
      4 O4          -0.7205 -18.0437  12.9626 O.2            1 <1>                0.0000
      5 C5          -0.0817 -15.9309  12.2091 C.2            1 <1>                0.0000
      6 C6           0.1662 -15.9699  10.8656 C.2            1 <1>                0.0000
      7 N7          -0.0154 -14.7186  10.3987 N.pl3          1 <1>                0.0000
      8 N8          -0.3791 -13.9248  11.4957 N.2            1 <1>                0.0000
      9 N9          -0.4132 -14.6718  12.5439 N.2            1 <1>                0.0000
     10 C10          0.1382 -14.2734   9.0115 C.3            1 <1>                0.0000
     11 C11         -0.0745 -12.7587   8.9342 C.3            1 <1>                0.0000
     12 C12          0.1652 -12.2924   7.4953 C.3            1 <1>                0.0000
     13 C13          1.5733 -12.7031   7.0596 C.3            1 <1>                0.0000
     14 N14          1.7049 -14.1633   7.1305 N.4            1 <1>                1.0000
     15 C15          1.5475 -14.6108   8.5196 C.3            1 <1>                0.0000
     16 H16          1.6348 -18.0744  15.8111 H              1 <1>                0.0000
     17 H17         -0.0828 -18.3868  15.4637 H              1 <1>                0.0000
     18 H18          1.1783 -19.0965  14.4272 H              1 <1>                0.0000
     19 H19          0.4531 -16.8367  10.2889 H              1 <1>                0.0000
     20 H20         -0.5973 -14.7767   8.3841 H              1 <1>                0.0000
     21 H21         -1.0957 -12.5185   9.2299 H              1 <1>                0.0000
     22 H22          0.6268 -12.2576   9.6013 H              1 <1>                0.0000
     23 H23         -0.5692 -12.7545   6.8357 H              1 <1>                0.0000
     24 H24          0.0700 -11.2077   7.4436 H              1 <1>                0.0000
     25 H25          1.7473 -12.3725   6.0357 H              1 <1>                0.0000
     26 H26          2.3070 -12.2402   7.7196 H              1 <1>                0.0000
     27 H27          2.2816 -14.1071   9.1485 H              1 <1>                0.0000
     28 H28          1.7023 -15.6883   8.5736 H              1 <1>                0.0000
     29 H29          0.9939 -14.5923   6.5574 H              1 <1>                0.0000
     30 H30          2.6159 -14.4348   6.7921 H              1 <1>                0.0000
@<TRIPOS>BOND
    1    1    2 1     
    2    1   16 1     
    3    1   17 1     
    4    1   18 1     
    5    2    3 1     
    6    3    4 2     
    7    3    5 1     
    8    5    6 2     
    9    5    9 1     
   10    6    7 1     
   11    6   19 1     
   12    7    8 1     
   13    7   10 1     
   14    8    9 2     
   15   10   11 1     
   16   10   15 1     
   17   10   20 1     
   18   11   12 1     
   19   11   21 1     
   20   11   22 1     
   21   12   13 1     
   22   12   23 1     
   23   12   24 1     
   24   13   14 1     
   25   13   25 1     
   26   13   26 1     
   27   14   15 1     
   28   14   29 1     
   29   14   30 1     
   30   15   27 1     
   31   15   28 1     
@<TRIPOS>SUBSTRUCTURE
      1 ****           1
@<TRIPOS>SET
DONOR_HYDROGENS      STATIC     ATOMS    <user>   **** ""
2 29 30
ATOM$RED        STATIC     ATOMS    COLORGROUP SYSTEM
2 29 30
@<TRIPOS>COMMENT
> <Gold.Version>
2022.2.0

> <Gold.Id.Protein>
3pbl|protein|mol2

> <Gold.Protein.RotatedTorsions>
[ 1303 1298 1297 1294 ] final -124.59 input  179.99 | X-H torsion
[ 2461 2456 2455 2452 ] final  -12.13 input   30.03 | X-H torsion
[ 2515 2510 2509 2506 ] final  -96.93 input  -89.99 | X-H torsion
[ 3721 3712 3711 3710 ] final   57.74 input -179.91 | X-H torsion
[ 3841 3832 3831 3830 ] final -148.98 input -179.91 | X-H torsion
[ 3767 3762 3761 3758 ] final -147.69 input  -89.99 | X-H torsion
[ 2472 2467 2466 2463 ] final -157.58 input  -89.97 | X-H torsion

> <Gold.Protein.ActiveResidues>
 VAL82   VAL86   LEU89   PHE106  VAL107  ASP110  VAL111  MET112  CYS114  THR115 
 CYS181  SER182  ILE183  PHE188  VAL189  ILE190  SER192  SER193  SER196  TRP342 
 PHE345  PHE346  HIS349  VAL350  TYR365  THR369  GLY372  TYR373 

> <Gold.Protein.RotatedAtoms>
    4.2953   -8.4757    4.1371 H   0  0  0  0  0  0  0  0  0  0  0  0  # atno 1303 bound_to 1298
    0.8580   -8.0660    7.0446 H   0  0  0  0  0  0  0  0  0  0  0  0  # atno 2461 bound_to 2456
   -5.0865   -5.4490    9.2699 H   0  0  0  0  0  0  0  0  0  0  0  0  # atno 2472 bound_to 2467
    2.8050   -9.0127    4.6891 H   0  0  0  0  0  0  0  0  0  0  0  0  # atno 2515 bound_to 2510
   -2.5796  -17.9238   13.4118 H   0  0  0  0  0  0  0  0  0  0  0  0  # atno 3721 bound_to 3712
   -4.4655  -22.1703   11.6463 H   0  0  0  0  0  0  0  0  0  0  0  0  # atno 3767 bound_to 3762
    2.6153  -19.7446    8.3500 H   0  0  0  0  0  0  0  0  0  0  0  0  # atno 3841 bound_to 3832
    4.7018   -9.8345    4.9462 LP  0  0  0  0  0  0  0  0  0  0  0  0  # atno 4297 bound_to 1298
    3.3651   -9.8115    4.0084 LP  0  0  0  0  0  0  0  0  0  0  0  0  # atno 4298 bound_to 1298
    0.7218   -9.2410    8.1707 LP  0  0  0  0  0  0  0  0  0  0  0  0  # atno 4299 bound_to 2456
    2.1578   -8.5009    7.9327 LP  0  0  0  0  0  0  0  0  0  0  0  0  # atno 4300 bound_to 2456
    2.1118   -8.5359    6.0883 LP  0  0  0  0  0  0  0  0  0  0  0  0  # atno 4301 bound_to 2510
    2.3797   -7.4503    4.8982 LP  0  0  0  0  0  0  0  0  0  0  0  0  # atno 4302 bound_to 2510
   -3.0026  -17.3866   14.8645 LP  0  0  0  0  0  0  0  0  0  0  0  0  # atno 4306 bound_to 3712
   -3.5468  -16.6464   13.5144 LP  0  0  0  0  0  0  0  0  0  0  0  0  # atno 4307 bound_to 3712
    2.8011  -21.1205    9.1552 LP  0  0  0  0  0  0  0  0  0  0  0  0  # atno 4314 bound_to 3832
    1.4072  -20.2767    9.2629 LP  0  0  0  0  0  0  0  0  0  0  0  0  # atno 4315 bound_to 3832
   -4.1690  -23.3254   10.5308 LP  0  0  0  0  0  0  0  0  0  0  0  0  # atno 4318 bound_to 3762
   -5.4928  -22.3792   10.3942 LP  0  0  0  0  0  0  0  0  0  0  0  0  # atno 4319 bound_to 3762
   -4.9945   -4.8866    7.7397 LP  0  0  0  0  0  0  0  0  0  0  0  0  # atno 4320 bound_to 2467
   -3.6361   -5.0579    8.6297 LP  0  0  0  0  0  0  0  0  0  0  0  0  # atno 4321 bound_to 2467

> <Gold.Score>
     Score     S(PLP)   S(hbond)     S(cho)   S(metal)  DE(clash)   DE(tors)     intcor
     38.67     -32.80       1.75       0.99       0.00       0.00       1.16       0.00

> <Gold.PLP.Fitness>
38.6740

> <Gold.PLP.PLP>
-32.8031

> <Gold.PLP.part.hbond>
-1.7401

> <Gold.PLP.part.metal>
0.0000

> <Gold.PLP.part.buried>
-4.6196

> <Gold.PLP.part.nonpolar>
-27.6509

> <Gold.PLP.part.repulsive>
0.2167

> <Gold.PLP.ligand.clash>
0.0000

> <Gold.PLP.ligand.torsion>
1.1639

> <Gold.PLP.Chemscore.Hbond>
1.7475

> <Gold.PLP.Chemscore.CHOScore>
0.9853

> <Gold.PLP.Chemscore.Metal>
0.0000

> <Gold.Chemscore.Hbonds>
donor molecule, donor type, donor heavy atom, donor atom, acceptor molecule, acceptor atom, score
      L1  H    14    30       P1  1223  0.75
      P1  H  3712  3721       L1     4  1.00
      L1  C     6    19       P1  1227  0.99

> <Gold.PLP.Chemscore.Internal.Correction>
0.0002

