#       Name:                EN300-136798_i002
#       Creating user name   fsindt
#       Creation time:       Mon Feb 27 21:37:17 2023


#       File generated by GOLD software.
#

@<TRIPOS>MOLECULE
EN300-136798_i002|amine_3|mol2|877|dock1
    30    31     1
SMALL
USER_CHARGES


@<TRIPOS>ATOM
      1 C1           1.6932 -17.6630  14.8134 C.3            1 <1>                0.0000
      2 O2           1.6059 -16.9156  13.5715 O.3            1 <1>                0.0000
      3 C3           0.6575 -15.9613  13.4973 C.2            1 <1>                0.0000
      4 O4          -0.0401 -15.7216  14.4630 O.2            1 <1>                0.0000
      5 C5           0.4663 -15.2082  12.2449 C.2            1 <1>                0.0000
      6 C6          -0.3964 -14.1638  12.0643 C.2            1 <1>                0.0000
      7 N7          -0.2617 -13.7629  10.7845 N.pl3          1 <1>                0.0000
      8 N8           0.7048 -14.5929  10.1988 N.2            1 <1>                0.0000
      9 N9           1.1153 -15.4285  11.0883 N.2            1 <1>                0.0000
     10 C10         -0.9860 -12.6702  10.1309 C.3            1 <1>                0.0000
     11 C11         -1.9157 -11.9952  11.1435 C.3            1 <1>                0.0000
     12 C12         -2.6090 -10.8064  10.4717 C.3            1 <1>                0.0000
     13 C13         -1.5494  -9.8459   9.9275 C.3            1 <1>                0.0000
     14 N14         -0.7099 -10.5432   8.9459 N.4            1 <1>                1.0000
     15 C15          0.0135 -11.6406   9.5992 C.3            1 <1>                0.0000
     16 H16          2.4954 -18.3973  14.7398 H              1 <1>                0.0000
     17 H17          1.9017 -16.9783  15.6356 H              1 <1>                0.0000
     18 H18          0.7483 -18.1743  14.9970 H              1 <1>                0.0000
     19 H19         -1.0595 -13.7412  12.8046 H              1 <1>                0.0000
     20 H20         -1.5750 -13.0671   9.3041 H              1 <1>                0.0000
     21 H21         -2.6653 -12.7100  11.4829 H              1 <1>                0.0000
     22 H22         -1.3334 -11.6438  11.9952 H              1 <1>                0.0000
     23 H23         -3.2317 -11.1639   9.6517 H              1 <1>                0.0000
     24 H24         -3.2303 -10.2873  11.2016 H              1 <1>                0.0000
     25 H25         -2.0396  -8.9983   9.4487 H              1 <1>                0.0000
     26 H26         -0.9275  -9.4887  10.7483 H              1 <1>                0.0000
     27 H27          0.6021 -11.2452  10.4271 H              1 <1>                0.0000
     28 H28          0.6771 -12.1179   8.8782 H              1 <1>                0.0000
     29 H29         -1.2922 -10.9159   8.2111 H              1 <1>                0.0000
     30 H30         -0.0470  -9.8935   8.5499 H              1 <1>                0.0000
@<TRIPOS>BOND
    1    1    2 1     
    2    1   16 1     
    3    1   17 1     
    4    1   18 1     
    5    2    3 1     
    6    3    4 2     
    7    3    5 1     
    8    5    6 2     
    9    5    9 1     
   10    6    7 1     
   11    6   19 1     
   12    7    8 1     
   13    7   10 1     
   14    8    9 2     
   15   10   11 1     
   16   10   15 1     
   17   10   20 1     
   18   11   12 1     
   19   11   21 1     
   20   11   22 1     
   21   12   13 1     
   22   12   23 1     
   23   12   24 1     
   24   13   14 1     
   25   13   25 1     
   26   13   26 1     
   27   14   15 1     
   28   14   29 1     
   29   14   30 1     
   30   15   27 1     
   31   15   28 1     
@<TRIPOS>SUBSTRUCTURE
      1 ****           1
@<TRIPOS>SET
DONOR_HYDROGENS      STATIC     ATOMS    <user>   **** ""
2 29 30
ATOM$RED        STATIC     ATOMS    COLORGROUP SYSTEM
2 29 30
@<TRIPOS>COMMENT
> <Gold.Version>
2022.2.0

> <Gold.Id.Protein>
3pbl|protein|mol2

> <Gold.Protein.RotatedTorsions>
[ 1303 1298 1297 1294 ] final   32.51 input  179.99 | X-H torsion
[ 2461 2456 2455 2452 ] final   79.23 input   30.03 | X-H torsion
[ 2515 2510 2509 2506 ] final  176.93 input  -89.99 | X-H torsion
[ 3721 3712 3711 3710 ] final -107.44 input -179.91 | X-H torsion
[ 3841 3832 3831 3830 ] final   77.04 input -179.91 | X-H torsion
[ 3767 3762 3761 3758 ] final  127.32 input  -89.99 | X-H torsion
[ 2472 2467 2466 2463 ] final  119.08 input  -89.97 | X-H torsion

> <Gold.Protein.ActiveResidues>
 VAL82   VAL86   LEU89   PHE106  VAL107  ASP110  VAL111  MET112  CYS114  THR115 
 CYS181  SER182  ILE183  PHE188  VAL189  ILE190  SER192  SER193  SER196  TRP342 
 PHE345  PHE346  HIS349  VAL350  TYR365  THR369  GLY372  TYR373 

> <Gold.Protein.RotatedAtoms>
    3.6593  -10.1957    4.3626 H   0  0  0  0  0  0  0  0  0  0  0  0  # atno 1303 bound_to 1298
    2.0843   -8.1882    7.5946 H   0  0  0  0  0  0  0  0  0  0  0  0  # atno 2461 bound_to 2456
   -5.4109   -5.0702    8.1198 H   0  0  0  0  0  0  0  0  0  0  0  0  # atno 2472 bound_to 2467
    2.3031   -9.0039    5.8743 H   0  0  0  0  0  0  0  0  0  0  0  0  # atno 2515 bound_to 2510
   -3.1444  -16.7623   14.5445 H   0  0  0  0  0  0  0  0  0  0  0  0  # atno 3721 bound_to 3712
   -3.9261  -23.1293   11.0043 H   0  0  0  0  0  0  0  0  0  0  0  0  # atno 3767 bound_to 3762
    2.6929  -20.9540    9.3848 H   0  0  0  0  0  0  0  0  0  0  0  0  # atno 3841 bound_to 3832
    3.7947   -8.6494    3.8560 LP  0  0  0  0  0  0  0  0  0  0  0  0  # atno 4297 bound_to 1298
    4.9083   -9.2759    4.8729 LP  0  0  0  0  0  0  0  0  0  0  0  0  # atno 4298 bound_to 1298
    0.5082   -8.3366    7.1927 LP  0  0  0  0  0  0  0  0  0  0  0  0  # atno 4299 bound_to 2456
    1.1455   -9.2832    8.3608 LP  0  0  0  0  0  0  0  0  0  0  0  0  # atno 4300 bound_to 2456
    2.1657   -7.4465    5.4037 LP  0  0  0  0  0  0  0  0  0  0  0  0  # atno 4301 bound_to 2510
    2.8280   -8.5484    4.3969 LP  0  0  0  0  0  0  0  0  0  0  0  0  # atno 4302 bound_to 2510
   -3.2901  -17.1744   12.9995 LP  0  0  0  0  0  0  0  0  0  0  0  0  # atno 4306 bound_to 3712
   -2.6073  -18.1996   14.0717 LP  0  0  0  0  0  0  0  0  0  0  0  0  # atno 4307 bound_to 3712
    1.3934  -20.0627    9.0797 LP  0  0  0  0  0  0  0  0  0  0  0  0  # atno 4314 bound_to 3832
    2.7252  -19.9376    8.1430 LP  0  0  0  0  0  0  0  0  0  0  0  0  # atno 4315 bound_to 3832
   -5.2526  -22.8063   10.1083 LP  0  0  0  0  0  0  0  0  0  0  0  0  # atno 4318 bound_to 3762
   -4.9484  -21.9396   11.4585 LP  0  0  0  0  0  0  0  0  0  0  0  0  # atno 4319 bound_to 3762
   -3.7896   -4.8787    8.0855 LP  0  0  0  0  0  0  0  0  0  0  0  0  # atno 4320 bound_to 2467
   -4.5166   -5.4446    9.4338 LP  0  0  0  0  0  0  0  0  0  0  0  0  # atno 4321 bound_to 2467

> <Gold.Score>
     Score     S(PLP)   S(hbond)     S(cho)   S(metal)  DE(clash)   DE(tors)     intcor
     48.91     -42.96       2.00       0.00       0.00       0.00       0.02       0.00

> <Gold.PLP.Fitness>
48.9120

> <Gold.PLP.PLP>
-42.9588

> <Gold.PLP.part.hbond>
-2.0000

> <Gold.PLP.part.metal>
0.0000

> <Gold.PLP.part.buried>
-7.2571

> <Gold.PLP.part.nonpolar>
-36.1222

> <Gold.PLP.part.repulsive>
1.2099

> <Gold.PLP.ligand.clash>
0.0000

> <Gold.PLP.ligand.torsion>
0.0235

> <Gold.PLP.Chemscore.Hbond>
2.0000

> <Gold.PLP.Chemscore.CHOScore>
0.0000

> <Gold.PLP.Chemscore.Metal>
0.0000

> <Gold.Chemscore.Hbonds>
donor molecule, donor type, donor heavy atom, donor atom, acceptor molecule, acceptor atom, score
      L1  H    14    30       P1  2456  1.00
      P1  H  2305  2313       L1     4  1.00

> <Gold.PLP.Chemscore.Internal.Correction>
0.0002

