#       Name:                EN300-136798_i002
#       Creating user name   fsindt
#       Creation time:       Mon Feb 27 21:37:25 2023


#       File generated by GOLD software.
#

@<TRIPOS>MOLECULE
EN300-136798_i002|amine_3|mol2|877|dock12
    30    31     1
SMALL
USER_CHARGES


@<TRIPOS>ATOM
      1 C1           1.6009 -18.1919  14.9976 C.3            1 <1>                0.0000
      2 O2           2.1249 -17.1719  14.1070 O.3            1 <1>                0.0000
      3 C3           1.2546 -16.2466  13.6573 C.2            1 <1>                0.0000
      4 O4           0.3034 -15.9241  14.3414 O.2            1 <1>                0.0000
      5 C5           1.4563 -15.6258  12.3359 C.2            1 <1>                0.0000
      6 C6           0.4677 -15.1979  11.4948 C.2            1 <1>                0.0000
      7 N7           1.0755 -14.6962  10.4014 N.pl3          1 <1>                0.0000
      8 N8           2.4559 -14.8329  10.6056 N.2            1 <1>                0.0000
      9 N9           2.6439 -15.3791  11.7563 N.2            1 <1>                0.0000
     10 C10          0.4198 -14.1193   9.2253 C.3            1 <1>                0.0000
     11 C11          0.8389 -12.6542   9.0735 C.3            1 <1>                0.0000
     12 C12          0.2109 -12.0833   7.7987 C.3            1 <1>                0.0000
     13 C13          0.6368 -12.9353   6.6011 C.3            1 <1>                0.0000
     14 N14          0.1843 -14.3182   6.7943 N.4            1 <1>                1.0000
     15 C15          0.8380 -14.8959   7.9748 C.3            1 <1>                0.0000
     16 H16          2.4037 -18.8713  15.2842 H              1 <1>                0.0000
     17 H17          1.1893 -17.7191  15.8894 H              1 <1>                0.0000
     18 H18          0.8163 -18.7512  14.4879 H              1 <1>                0.0000
     19 H19         -0.5963 -15.2520  11.6719 H              1 <1>                0.0000
     20 H20         -0.6619 -14.1779   9.3461 H              1 <1>                0.0000
     21 H21          0.4934 -12.0849   9.9364 H              1 <1>                0.0000
     22 H22          1.9249 -12.5909   9.0046 H              1 <1>                0.0000
     23 H23         -0.8752 -12.0996   7.8891 H              1 <1>                0.0000
     24 H24          0.5493 -11.0572   7.6542 H              1 <1>                0.0000
     25 H25          0.1915 -12.5315   5.6918 H              1 <1>                0.0000
     26 H26          1.7229 -12.9180   6.5114 H              1 <1>                0.0000
     27 H27          1.9198 -14.8368   7.8558 H              1 <1>                0.0000
     28 H28          0.5413 -15.9394   8.0796 H              1 <1>                0.0000
     29 H29         -0.8160 -14.3284   6.9262 H              1 <1>                0.0000
     30 H30          0.4196 -14.8649   5.9795 H              1 <1>                0.0000
@<TRIPOS>BOND
    1    1    2 1     
    2    1   16 1     
    3    1   17 1     
    4    1   18 1     
    5    2    3 1     
    6    3    4 2     
    7    3    5 1     
    8    5    6 2     
    9    5    9 1     
   10    6    7 1     
   11    6   19 1     
   12    7    8 1     
   13    7   10 1     
   14    8    9 2     
   15   10   11 1     
   16   10   15 1     
   17   10   20 1     
   18   11   12 1     
   19   11   21 1     
   20   11   22 1     
   21   12   13 1     
   22   12   23 1     
   23   12   24 1     
   24   13   14 1     
   25   13   25 1     
   26   13   26 1     
   27   14   15 1     
   28   14   29 1     
   29   14   30 1     
   30   15   27 1     
   31   15   28 1     
@<TRIPOS>SUBSTRUCTURE
      1 ****           1
@<TRIPOS>SET
DONOR_HYDROGENS      STATIC     ATOMS    <user>   **** ""
2 29 30
ATOM$RED        STATIC     ATOMS    COLORGROUP SYSTEM
2 29 30
@<TRIPOS>COMMENT
> <Gold.Version>
2022.2.0

> <Gold.Id.Protein>
3pbl|protein|mol2

> <Gold.Protein.RotatedTorsions>
[ 1303 1298 1297 1294 ] final  -40.12 input  179.99 | X-H torsion
[ 2461 2456 2455 2452 ] final   -1.48 input   30.03 | X-H torsion
[ 2515 2510 2509 2506 ] final -120.51 input  -89.99 | X-H torsion
[ 3721 3712 3711 3710 ] final  -60.32 input -179.91 | X-H torsion
[ 3841 3832 3831 3830 ] final  -48.92 input -179.91 | X-H torsion
[ 3767 3762 3761 3758 ] final   59.53 input  -89.99 | X-H torsion
[ 2472 2467 2466 2463 ] final  136.50 input  -89.97 | X-H torsion

> <Gold.Protein.ActiveResidues>
 VAL82   VAL86   LEU89   PHE106  VAL107  ASP110  VAL111  MET112  CYS114  THR115 
 CYS181  SER182  ILE183  PHE188  VAL189  ILE190  SER192  SER193  SER196  TRP342 
 PHE345  PHE346  HIS349  VAL350  TYR365  THR369  GLY372  TYR373 

> <Gold.Protein.RotatedAtoms>
    3.3694   -9.2739    3.8034 H   0  0  0  0  0  0  0  0  0  0  0  0  # atno 1303 bound_to 1298
    1.0181   -7.9963    7.0307 H   0  0  0  0  0  0  0  0  0  0  0  0  # atno 2461 bound_to 2456
   -5.4981   -5.1708    8.3723 H   0  0  0  0  0  0  0  0  0  0  0  0  # atno 2472 bound_to 2467
    2.7121   -9.2066    5.0085 H   0  0  0  0  0  0  0  0  0  0  0  0  # atno 2515 bound_to 2510
   -2.8023  -17.3268   14.7535 H   0  0  0  0  0  0  0  0  0  0  0  0  # atno 3721 bound_to 3712
   -4.5757  -23.2787   10.1906 H   0  0  0  0  0  0  0  0  0  0  0  0  # atno 3767 bound_to 3762
    1.5729  -19.9195    9.1521 H   0  0  0  0  0  0  0  0  0  0  0  0  # atno 3841 bound_to 3832
    4.7116   -8.6506    4.4936 LP  0  0  0  0  0  0  0  0  0  0  0  0  # atno 4297 bound_to 1298
    4.2814  -10.1969    4.7947 LP  0  0  0  0  0  0  0  0  0  0  0  0  # atno 4298 bound_to 1298
    0.5921   -9.1836    8.0681 LP  0  0  0  0  0  0  0  0  0  0  0  0  # atno 4299 bound_to 2456
    2.1276   -8.6281    8.0491 LP  0  0  0  0  0  0  0  0  0  0  0  0  # atno 4300 bound_to 2456
    2.0403   -8.1580    6.0645 LP  0  0  0  0  0  0  0  0  0  0  0  0  # atno 4301 bound_to 2510
    2.5442   -7.6341    4.6023 LP  0  0  0  0  0  0  0  0  0  0  0  0  # atno 4302 bound_to 2510
   -3.5443  -16.6532   13.4991 LP  0  0  0  0  0  0  0  0  0  0  0  0  # atno 4306 bound_to 3712
   -2.7480  -18.0690   13.3308 LP  0  0  0  0  0  0  0  0  0  0  0  0  # atno 4307 bound_to 3712
    2.8334  -20.0375    8.1655 LP  0  0  0  0  0  0  0  0  0  0  0  0  # atno 4314 bound_to 3832
    2.5790  -21.1578    9.3261 LP  0  0  0  0  0  0  0  0  0  0  0  0  # atno 4315 bound_to 3832
   -5.4608  -22.0575   10.8167 LP  0  0  0  0  0  0  0  0  0  0  0  0  # atno 4318 bound_to 3762
   -4.0908  -22.5391   11.5635 LP  0  0  0  0  0  0  0  0  0  0  0  0  # atno 4319 bound_to 3762
   -3.9800   -4.8255    7.8796 LP  0  0  0  0  0  0  0  0  0  0  0  0  # atno 4320 bound_to 2467
   -4.2390   -5.3973    9.3872 LP  0  0  0  0  0  0  0  0  0  0  0  0  # atno 4321 bound_to 2467

> <Gold.Score>
     Score     S(PLP)   S(hbond)     S(cho)   S(metal)  DE(clash)   DE(tors)     intcor
     38.72     -37.33       1.00       0.00       0.00       0.00       0.81       0.00

> <Gold.PLP.Fitness>
38.7158

> <Gold.PLP.PLP>
-37.3275

> <Gold.PLP.part.hbond>
-1.0000

> <Gold.PLP.part.metal>
0.0000

> <Gold.PLP.part.buried>
-6.4113

> <Gold.PLP.part.nonpolar>
-34.3445

> <Gold.PLP.part.repulsive>
2.8326

> <Gold.PLP.ligand.clash>
0.0000

> <Gold.PLP.ligand.torsion>
0.8060

> <Gold.PLP.Chemscore.Hbond>
1.0000

> <Gold.PLP.Chemscore.CHOScore>
0.0000

> <Gold.PLP.Chemscore.Metal>
0.0000

> <Gold.Chemscore.Hbonds>
donor molecule, donor type, donor heavy atom, donor atom, acceptor molecule, acceptor atom, score
      P1  H  2305  2313       L1     4  1.00

> <Gold.PLP.Chemscore.Internal.Correction>
0.0002

