#       Name:                EN300-136798_i002
#       Creating user name   fsindt
#       Creation time:       Mon Feb 27 21:37:17 2023


#       File generated by GOLD software.
#

@<TRIPOS>MOLECULE
EN300-136798_i002
    30    31     1
SMALL
USER_CHARGES


@<TRIPOS>ATOM
      1 C1           5.9814  -0.3214  -0.1579 C.3            1 <1>                0.0000
      2 O2           4.7584   0.4341   0.0466 O.3            1 <1>                0.0000
      3 C3           3.5982  -0.2466  -0.0332 C.2            1 <1>                0.0000
      4 O4           3.6083  -1.4390  -0.2673 O.2            1 <1>                0.0000
      5 C5           2.3171   0.4550   0.1634 C.2            1 <1>                0.0000
      6 C6           1.0767  -0.1161   0.1088 C.2            1 <1>                0.0000
      7 N7           0.1840   0.8661   0.3433 N.pl3          1 <1>                0.0000
      8 N8           0.9188   2.0438   0.5407 N.2            1 <1>                0.0000
      9 N9           2.1710   1.7640   0.4327 N.2            1 <1>                0.0000
     10 C10         -1.2740   0.7296   0.3838 C.3            1 <1>                0.0000
     11 C11         -1.8372   0.8364  -1.0363 C.3            1 <1>                0.0000
     12 C12         -3.3518   0.6144  -0.9922 C.3            1 <1>                0.0000
     13 C13         -3.6442  -0.7449  -0.3532 C.3            1 <1>                0.0000
     14 N14         -3.1040  -0.7744   1.0113 N.4            1 <1>                1.0000
     15 C15         -1.6434  -0.6340   0.9719 C.3            1 <1>                0.0000
     16 H16          6.8394   0.3447  -0.0670 H              1 <1>                0.0000
     17 H17          6.0517  -1.1090   0.5924 H              1 <1>                0.0000
     18 H18          5.9712  -0.7670  -1.1526 H              1 <1>                0.0000
     19 H19          0.8543  -1.1549  -0.0856 H              1 <1>                0.0000
     20 H20         -1.6966   1.5205   1.0034 H              1 <1>                0.0000
     21 H21         -1.6256   1.8270  -1.4388 H              1 <1>                0.0000
     22 H22         -1.3760   0.0783  -1.6693 H              1 <1>                0.0000
     23 H23         -3.8182   1.4024  -0.4010 H              1 <1>                0.0000
     24 H24         -3.7522   0.6337  -2.0059 H              1 <1>                0.0000
     25 H25         -4.7217  -0.9062  -0.3204 H              1 <1>                0.0000
     26 H26         -3.1777  -1.5322  -0.9453 H              1 <1>                0.0000
     27 H27         -1.2195  -1.4236   0.3515 H              1 <1>                0.0000
     28 H28         -1.2438  -0.7134   1.9828 H              1 <1>                0.0000
     29 H29         -3.4996  -0.0151   1.5451 H              1 <1>                0.0000
     30 H30         -3.3448  -1.6514   1.4484 H              1 <1>                0.0000
@<TRIPOS>BOND
    1    1    2 1     
    2    1   16 1     
    3    1   17 1     
    4    1   18 1     
    5    2    3 1     
    6    3    4 2     
    7    3    5 1     
    8    5    6 2     
    9    5    9 1     
   10    6    7 1     
   11    6   19 1     
   12    7    8 1     
   13    7   10 1     
   14    8    9 2     
   15   10   11 1     
   16   10   15 1     
   17   10   20 1     
   18   11   12 1     
   19   11   21 1     
   20   11   22 1     
   21   12   13 1     
   22   12   23 1     
   23   12   24 1     
   24   13   14 1     
   25   13   25 1     
   26   13   26 1     
   27   14   15 1     
   28   14   29 1     
   29   14   30 1     
   30   15   27 1     
   31   15   28 1     
@<TRIPOS>SUBSTRUCTURE
      1 ****           1
@<TRIPOS>SET
DONOR_HYDROGENS      STATIC     ATOMS    <user>   **** ""
2 29 30
ATOM$RED        STATIC     ATOMS    COLORGROUP SYSTEM
2 29 30
