#       Name:                EN300-136798_i002
#       Creating user name   fsindt
#       Creation time:       Mon Feb 27 21:37:19 2023


#       File generated by GOLD software.
#

@<TRIPOS>MOLECULE
EN300-136798_i002|amine_3|mol2|877|dock4
    30    31     1
SMALL
USER_CHARGES


@<TRIPOS>ATOM
      1 C1          -4.3203  -9.8875   9.9329 C.3            1 <1>                0.0000
      2 O2          -3.0851 -10.5043  10.3826 O.3            1 <1>                0.0000
      3 C3          -1.9856 -10.2884   9.6341 C.2            1 <1>                0.0000
      4 O4          -1.8711  -9.2537   9.0071 O.2            1 <1>                0.0000
      5 C5          -0.9220 -11.3070   9.5759 C.2            1 <1>                0.0000
      6 C6          -1.0620 -12.6277   9.8979 C.2            1 <1>                0.0000
      7 N7           0.1405 -13.2057   9.7072 N.pl3          1 <1>                0.0000
      8 N8           1.0087 -12.1988   9.2618 N.2            1 <1>                0.0000
      9 N9           0.3487 -11.0955   9.1913 N.2            1 <1>                0.0000
     10 C10          0.4763 -14.6151   9.9239 C.3            1 <1>                0.0000
     11 C11         -0.0952 -15.0760  11.2679 C.3            1 <1>                0.0000
     12 C12          0.1932 -16.5691  11.4489 C.3            1 <1>                0.0000
     13 C13         -0.3998 -17.3441  10.2702 C.3            1 <1>                0.0000
     14 N14          0.2057 -16.8757   9.0178 N.4            1 <1>                1.0000
     15 C15         -0.1271 -15.4625   8.8017 C.3            1 <1>                0.0000
     16 H16         -5.1250 -10.1404  10.6233 H              1 <1>                0.0000
     17 H17         -4.1954  -8.8051   9.9014 H              1 <1>                0.0000
     18 H18         -4.5677 -10.2539   8.9366 H              1 <1>                0.0000
     19 H19         -1.9631 -13.1148  10.2402 H              1 <1>                0.0000
     20 H20          1.5597 -14.7346   9.9289 H              1 <1>                0.0000
     21 H21          0.3736 -14.5137  12.0754 H              1 <1>                0.0000
     22 H22         -1.1722 -14.9084  11.2827 H              1 <1>                0.0000
     23 H23          1.2705 -16.7300  11.4852 H              1 <1>                0.0000
     24 H24         -0.2590 -16.9172  12.3777 H              1 <1>                0.0000
     25 H25         -0.1964 -18.4076  10.3961 H              1 <1>                0.0000
     26 H26         -1.4772 -17.1828  10.2350 H              1 <1>                0.0000
     27 H27         -1.2104 -15.3413   8.7978 H              1 <1>                0.0000
     28 H28          0.2775 -15.1368   7.8435 H              1 <1>                0.0000
     29 H29          1.2079 -16.9799   9.0703 H              1 <1>                0.0000
     30 H30         -0.1477 -17.4248   8.2486 H              1 <1>                0.0000
@<TRIPOS>BOND
    1    1    2 1     
    2    1   16 1     
    3    1   17 1     
    4    1   18 1     
    5    2    3 1     
    6    3    4 2     
    7    3    5 1     
    8    5    6 2     
    9    5    9 1     
   10    6    7 1     
   11    6   19 1     
   12    7    8 1     
   13    7   10 1     
   14    8    9 2     
   15   10   11 1     
   16   10   15 1     
   17   10   20 1     
   18   11   12 1     
   19   11   21 1     
   20   11   22 1     
   21   12   13 1     
   22   12   23 1     
   23   12   24 1     
   24   13   14 1     
   25   13   25 1     
   26   13   26 1     
   27   14   15 1     
   28   14   29 1     
   29   14   30 1     
   30   15   27 1     
   31   15   28 1     
@<TRIPOS>SUBSTRUCTURE
      1 ****           1
@<TRIPOS>SET
DONOR_HYDROGENS      STATIC     ATOMS    <user>   **** ""
2 29 30
ATOM$RED        STATIC     ATOMS    COLORGROUP SYSTEM
2 29 30
@<TRIPOS>COMMENT
> <Gold.Version>
2022.2.0

> <Gold.Id.Protein>
3pbl|protein|mol2

> <Gold.Protein.RotatedTorsions>
[ 1303 1298 1297 1294 ] final  -56.63 input  179.99 | X-H torsion
[ 2461 2456 2455 2452 ] final -146.95 input   30.03 | X-H torsion
[ 2515 2510 2509 2506 ] final  -90.65 input  -89.99 | X-H torsion
[ 3721 3712 3711 3710 ] final   16.21 input -179.91 | X-H torsion
[ 3841 3832 3831 3830 ] final -177.73 input -179.91 | X-H torsion
[ 3767 3762 3761 3758 ] final  -84.71 input  -89.99 | X-H torsion
[ 2472 2467 2466 2463 ] final -119.36 input  -89.97 | X-H torsion

> <Gold.Protein.ActiveResidues>
 VAL82   VAL86   LEU89   PHE106  VAL107  ASP110  VAL111  MET112  CYS114  THR115 
 CYS181  SER182  ILE183  PHE188  VAL189  ILE190  SER192  SER193  SER196  TRP342 
 PHE345  PHE346  HIS349  VAL350  TYR365  THR369  GLY372  TYR373 

> <Gold.Protein.RotatedAtoms>
    3.4710   -9.0243    3.7772 H   0  0  0  0  0  0  0  0  0  0  0  0  # atno 1303 bound_to 1298
    0.9311   -9.2842    8.2869 H   0  0  0  0  0  0  0  0  0  0  0  0  # atno 2461 bound_to 2456
   -4.4909   -5.4422    9.4327 H   0  0  0  0  0  0  0  0  0  0  0  0  # atno 2472 bound_to 2467
    2.8197   -8.9401    4.6172 H   0  0  0  0  0  0  0  0  0  0  0  0  # atno 2515 bound_to 2510
   -2.4699  -18.0228   14.0079 H   0  0  0  0  0  0  0  0  0  0  0  0  # atno 3721 bound_to 3712
   -5.2793  -21.9315   11.1452 H   0  0  0  0  0  0  0  0  0  0  0  0  # atno 3767 bound_to 3762
    2.9377  -20.0243    8.4009 H   0  0  0  0  0  0  0  0  0  0  0  0  # atno 3841 bound_to 3832
    4.8369   -8.8319    4.6510 LP  0  0  0  0  0  0  0  0  0  0  0  0  # atno 4297 bound_to 1298
    4.0546  -10.2653    4.6636 LP  0  0  0  0  0  0  0  0  0  0  0  0  # atno 4298 bound_to 1298
    2.1476   -8.3308    7.7592 LP  0  0  0  0  0  0  0  0  0  0  0  0  # atno 4299 bound_to 2456
    0.6590   -8.1934    7.1022 LP  0  0  0  0  0  0  0  0  0  0  0  0  # atno 4300 bound_to 2456
    2.1405   -8.6333    6.0699 LP  0  0  0  0  0  0  0  0  0  0  0  0  # atno 4301 bound_to 2510
    2.3363   -7.4254    4.9885 LP  0  0  0  0  0  0  0  0  0  0  0  0  # atno 4302 bound_to 2510
   -3.3373  -16.8354   14.6524 LP  0  0  0  0  0  0  0  0  0  0  0  0  # atno 4306 bound_to 3712
   -3.3388  -17.0833   13.0383 LP  0  0  0  0  0  0  0  0  0  0  0  0  # atno 4307 bound_to 3712
    2.4074  -21.1446    9.4206 LP  0  0  0  0  0  0  0  0  0  0  0  0  # atno 4314 bound_to 3832
    1.4285  -19.9296    8.9388 LP  0  0  0  0  0  0  0  0  0  0  0  0  # atno 4315 bound_to 3832
   -3.9357  -22.8360   11.3531 LP  0  0  0  0  0  0  0  0  0  0  0  0  # atno 4318 bound_to 3762
   -4.9125  -23.1073   10.0729 LP  0  0  0  0  0  0  0  0  0  0  0  0  # atno 4319 bound_to 3762
   -5.4221   -5.0785    8.1415 LP  0  0  0  0  0  0  0  0  0  0  0  0  # atno 4320 bound_to 2467
   -3.8039   -4.8729    8.0651 LP  0  0  0  0  0  0  0  0  0  0  0  0  # atno 4321 bound_to 2467

> <Gold.Score>
     Score     S(PLP)   S(hbond)     S(cho)   S(metal)  DE(clash)   DE(tors)     intcor
     43.92     -36.70       2.99       0.00       0.00       0.00       0.88       0.00

> <Gold.PLP.Fitness>
43.9177

> <Gold.PLP.PLP>
-36.6994

> <Gold.PLP.part.hbond>
-3.2053

> <Gold.PLP.part.metal>
0.0000

> <Gold.PLP.part.buried>
-3.9447

> <Gold.PLP.part.nonpolar>
-30.1009

> <Gold.PLP.part.repulsive>
0.1924

> <Gold.PLP.ligand.clash>
0.0000

> <Gold.PLP.ligand.torsion>
0.8778

> <Gold.PLP.Chemscore.Hbond>
2.9913

> <Gold.PLP.Chemscore.CHOScore>
0.0000

> <Gold.PLP.Chemscore.Metal>
0.0000

> <Gold.Chemscore.Hbonds>
donor molecule, donor type, donor heavy atom, donor atom, acceptor molecule, acceptor atom, score
      L1  H    14    29       P1  1227  2.00
      P1  H  2456  2461       L1     9  0.99

> <Gold.PLP.Chemscore.Internal.Correction>
0.0002

