#       Name:                EN300-136798_i002
#       Creating user name   fsindt
#       Creation time:       Mon Feb 27 21:37:23 2023


#       File generated by GOLD software.
#

@<TRIPOS>MOLECULE
EN300-136798_i002|amine_3|mol2|877|dock9
    30    31     1
SMALL
USER_CHARGES


@<TRIPOS>ATOM
      1 C1           1.2955 -18.0023  14.9999 C.3            1 <1>                0.0000
      2 O2           1.2142 -17.1603  13.8198 O.3            1 <1>                0.0000
      3 C3           0.3265 -16.1470  13.8511 C.2            1 <1>                0.0000
      4 O4          -0.3123 -15.9300  14.8618 O.2            1 <1>                0.0000
      5 C5           0.1304 -15.3020  12.6596 C.2            1 <1>                0.0000
      6 C6           0.7647 -15.4543  11.4587 C.2            1 <1>                0.0000
      7 N7           0.3021 -14.4830  10.6469 N.pl3          1 <1>                0.0000
      8 N8          -0.6275 -13.7415  11.3898 N.2            1 <1>                0.0000
      9 N9          -0.7072 -14.2544  12.5681 N.2            1 <1>                0.0000
     10 C10          0.6953 -14.2469   9.2556 C.3            1 <1>                0.0000
     11 C11          0.2062 -15.4060   8.3823 C.3            1 <1>                0.0000
     12 C12          0.5531 -15.1121   6.9199 C.3            1 <1>                0.0000
     13 C13         -0.0705 -13.7756   6.5121 C.3            1 <1>                0.0000
     14 N14          0.4568 -12.7047   7.3663 N.4            1 <1>                1.0000
     15 C15          0.0664 -12.9424   8.7612 C.3            1 <1>                0.0000
     16 H16          2.0464 -18.7766  14.8428 H              1 <1>                0.0000
     17 H17          1.5745 -17.3950  15.8611 H              1 <1>                0.0000
     18 H18          0.3266 -18.4674  15.1819 H              1 <1>                0.0000
     19 H19          1.4967 -16.2079  11.2084 H              1 <1>                0.0000
     20 H20          1.7810 -14.1757   9.1912 H              1 <1>                0.0000
     21 H21          0.6948 -16.3290   8.6944 H              1 <1>                0.0000
     22 H22         -0.8738 -15.5105   8.4867 H              1 <1>                0.0000
     23 H23          1.6358 -15.0583   6.8064 H              1 <1>                0.0000
     24 H24          0.1591 -15.9062   6.2856 H              1 <1>                0.0000
     25 H25          0.1745 -13.5634   5.4714 H              1 <1>                0.0000
     26 H26         -1.1531 -13.8305   6.6257 H              1 <1>                0.0000
     27 H27         -1.0191 -13.0151   8.8269 H              1 <1>                0.0000
     28 H28          0.4124 -12.1152   9.3808 H              1 <1>                0.0000
     29 H29          1.4633 -12.6863   7.2982 H              1 <1>                0.0000
     30 H30          0.0848 -11.8180   7.0605 H              1 <1>                0.0000
@<TRIPOS>BOND
    1    1    2 1     
    2    1   16 1     
    3    1   17 1     
    4    1   18 1     
    5    2    3 1     
    6    3    4 2     
    7    3    5 1     
    8    5    6 2     
    9    5    9 1     
   10    6    7 1     
   11    6   19 1     
   12    7    8 1     
   13    7   10 1     
   14    8    9 2     
   15   10   11 1     
   16   10   15 1     
   17   10   20 1     
   18   11   12 1     
   19   11   21 1     
   20   11   22 1     
   21   12   13 1     
   22   12   23 1     
   23   12   24 1     
   24   13   14 1     
   25   13   25 1     
   26   13   26 1     
   27   14   15 1     
   28   14   29 1     
   29   14   30 1     
   30   15   27 1     
   31   15   28 1     
@<TRIPOS>SUBSTRUCTURE
      1 ****           1
@<TRIPOS>SET
DONOR_HYDROGENS      STATIC     ATOMS    <user>   **** ""
2 29 30
ATOM$RED        STATIC     ATOMS    COLORGROUP SYSTEM
2 29 30
@<TRIPOS>COMMENT
> <Gold.Version>
2022.2.0

> <Gold.Id.Protein>
3pbl|protein|mol2

> <Gold.Protein.RotatedTorsions>
[ 1303 1298 1297 1294 ] final  126.53 input  179.99 | X-H torsion
[ 2461 2456 2455 2452 ] final  -98.51 input   30.03 | X-H torsion
[ 2515 2510 2509 2506 ] final -124.95 input  -89.99 | X-H torsion
[ 3721 3712 3711 3710 ] final  -10.32 input -179.91 | X-H torsion
[ 3841 3832 3831 3830 ] final  -16.77 input -179.91 | X-H torsion
[ 3767 3762 3761 3758 ] final  -98.30 input  -89.99 | X-H torsion
[ 2472 2467 2466 2463 ] final  -69.08 input  -89.97 | X-H torsion

> <Gold.Protein.ActiveResidues>
 VAL82   VAL86   LEU89   PHE106  VAL107  ASP110  VAL111  MET112  CYS114  THR115 
 CYS181  SER182  ILE183  PHE188  VAL189  ILE190  SER192  SER193  SER196  TRP342 
 PHE345  PHE346  HIS349  VAL350  TYR365  THR369  GLY372  TYR373 

> <Gold.Protein.RotatedAtoms>
    4.7941   -9.6768    4.9498 H   0  0  0  0  0  0  0  0  0  0  0  0  # atno 1303 bound_to 1298
    0.3937   -8.9954    7.8109 H   0  0  0  0  0  0  0  0  0  0  0  0  # atno 2461 bound_to 2456
   -3.8017   -5.2388    9.0788 H   0  0  0  0  0  0  0  0  0  0  0  0  # atno 2472 bound_to 2467
    2.6887   -9.2273    5.0745 H   0  0  0  0  0  0  0  0  0  0  0  0  # atno 2515 bound_to 2510
   -2.5153  -17.8861   14.3783 H   0  0  0  0  0  0  0  0  0  0  0  0  # atno 3721 bound_to 3712
   -5.1308  -21.9141   11.3109 H   0  0  0  0  0  0  0  0  0  0  0  0  # atno 3767 bound_to 3762
    1.6199  -20.2890    9.4538 H   0  0  0  0  0  0  0  0  0  0  0  0  # atno 3841 bound_to 3832
    3.4245   -9.9545    4.1051 LP  0  0  0  0  0  0  0  0  0  0  0  0  # atno 4297 bound_to 1298
    4.1434   -8.4899    4.0364 LP  0  0  0  0  0  0  0  0  0  0  0  0  # atno 4298 bound_to 1298
    1.9617   -8.8935    8.2564 LP  0  0  0  0  0  0  0  0  0  0  0  0  # atno 4299 bound_to 2456
    1.3820   -7.9194    7.0809 LP  0  0  0  0  0  0  0  0  0  0  0  0  # atno 4300 bound_to 2456
    2.0340   -8.0882    6.0439 LP  0  0  0  0  0  0  0  0  0  0  0  0  # atno 4301 bound_to 2510
    2.5739   -7.6831    4.5569 LP  0  0  0  0  0  0  0  0  0  0  0  0  # atno 4302 bound_to 2510
   -3.4941  -16.6155   14.3059 LP  0  0  0  0  0  0  0  0  0  0  0  0  # atno 4306 bound_to 3712
   -3.1296  -17.4610   12.9572 LP  0  0  0  0  0  0  0  0  0  0  0  0  # atno 4307 bound_to 3712
    2.3981  -19.7348    8.1641 LP  0  0  0  0  0  0  0  0  0  0  0  0  # atno 4314 bound_to 3832
    2.9601  -21.0336    8.9789 LP  0  0  0  0  0  0  0  0  0  0  0  0  # atno 4315 bound_to 3832
   -3.9075  -22.9896   11.1936 LP  0  0  0  0  0  0  0  0  0  0  0  0  # atno 4318 bound_to 3762
   -5.0892  -22.9711   10.0667 LP  0  0  0  0  0  0  0  0  0  0  0  0  # atno 4319 bound_to 3762
   -5.4204   -5.3499    8.8951 LP  0  0  0  0  0  0  0  0  0  0  0  0  # atno 4320 bound_to 2467
   -4.4946   -4.8048    7.6653 LP  0  0  0  0  0  0  0  0  0  0  0  0  # atno 4321 bound_to 2467

> <Gold.Score>
     Score     S(PLP)   S(hbond)     S(cho)   S(metal)  DE(clash)   DE(tors)     intcor
     43.63     -37.86       1.00       1.00       0.00       0.00       0.12       0.00

> <Gold.PLP.Fitness>
43.6312

> <Gold.PLP.PLP>
-37.8637

> <Gold.PLP.part.hbond>
-1.4310

> <Gold.PLP.part.metal>
0.0000

> <Gold.PLP.part.buried>
-4.1436

> <Gold.PLP.part.nonpolar>
-33.3907

> <Gold.PLP.part.repulsive>
0.2826

> <Gold.PLP.ligand.clash>
0.0000

> <Gold.PLP.ligand.torsion>
0.1163

> <Gold.PLP.Chemscore.Hbond>
1.0000

> <Gold.PLP.Chemscore.CHOScore>
1.0000

> <Gold.PLP.Chemscore.Metal>
0.0000

> <Gold.Chemscore.Hbonds>
donor molecule, donor type, donor heavy atom, donor atom, acceptor molecule, acceptor atom, score
      P1  H  2305  2313       L1     4  1.00
      L1  C     6    19       P1  1227  1.00

> <Gold.PLP.Chemscore.Internal.Correction>
0.0002

