#       Name:                EN300-136798_i002
#       Creating user name   fsindt
#       Creation time:       Mon Feb 27 21:37:20 2023


#       File generated by GOLD software.
#

@<TRIPOS>MOLECULE
EN300-136798_i002|amine_3|mol2|877|dock5
    30    31     1
SMALL
USER_CHARGES


@<TRIPOS>ATOM
      1 C1          -4.3775 -10.0555  10.2003 C.3            1 <1>                0.0000
      2 O2          -3.3877 -11.1048  10.3667 O.3            1 <1>                0.0000
      3 C3          -2.1048 -10.7821  10.1100 C.2            1 <1>                0.0000
      4 O4          -1.8025  -9.6269   9.8845 O.2            1 <1>                0.0000
      5 C5          -1.0685 -11.8300  10.1026 C.2            1 <1>                0.0000
      6 C6          -1.1000 -12.9900  10.8245 C.2            1 <1>                0.0000
      7 N7           0.0301 -13.6632  10.5311 N.pl3          1 <1>                0.0000
      8 N8           0.7433 -12.8788   9.6135 N.2            1 <1>                0.0000
      9 N9           0.0650 -11.8094   9.3801 N.2            1 <1>                0.0000
     10 C10          0.4357 -14.9645  11.0679 C.3            1 <1>                0.0000
     11 C11          0.1734 -14.9997  12.5763 C.3            1 <1>                0.0000
     12 C12          0.5271 -16.3894  13.1137 C.3            1 <1>                0.0000
     13 C13         -0.2854 -17.4440  12.3592 C.3            1 <1>                0.0000
     14 N14          0.0295 -17.3769  10.9271 N.4            1 <1>                1.0000
     15 C15         -0.3733 -16.0720  10.3891 C.3            1 <1>                0.0000
     16 H16         -5.3662 -10.4477  10.4384 H              1 <1>                0.0000
     17 H17         -4.1445  -9.2269  10.8691 H              1 <1>                0.0000
     18 H18         -4.3647  -9.7043   9.1685 H              1 <1>                0.0000
     19 H19         -1.8803 -13.3063  11.5009 H              1 <1>                0.0000
     20 H20          1.4978 -15.1210  10.8794 H              1 <1>                0.0000
     21 H21          0.7904 -14.2497  13.0711 H              1 <1>                0.0000
     22 H22         -0.8792 -14.7917  12.7681 H              1 <1>                0.0000
     23 H23          1.5909 -16.5763  12.9677 H              1 <1>                0.0000
     24 H24          0.2906 -16.4396  14.1766 H              1 <1>                0.0000
     25 H25         -0.0361 -18.4346  12.7395 H              1 <1>                0.0000
     26 H26         -1.3490 -17.2564  12.5061 H              1 <1>                0.0000
     27 H27         -1.4350 -15.9135  10.5781 H              1 <1>                0.0000
     28 H28         -0.1890 -16.0496   9.3151 H              1 <1>                0.0000
     29 H29          1.0220 -17.5020  10.7957 H              1 <1>                0.0000
     30 H30         -0.4670 -18.1080  10.4400 H              1 <1>                0.0000
@<TRIPOS>BOND
    1    1    2 1     
    2    1   16 1     
    3    1   17 1     
    4    1   18 1     
    5    2    3 1     
    6    3    4 2     
    7    3    5 1     
    8    5    6 2     
    9    5    9 1     
   10    6    7 1     
   11    6   19 1     
   12    7    8 1     
   13    7   10 1     
   14    8    9 2     
   15   10   11 1     
   16   10   15 1     
   17   10   20 1     
   18   11   12 1     
   19   11   21 1     
   20   11   22 1     
   21   12   13 1     
   22   12   23 1     
   23   12   24 1     
   24   13   14 1     
   25   13   25 1     
   26   13   26 1     
   27   14   15 1     
   28   14   29 1     
   29   14   30 1     
   30   15   27 1     
   31   15   28 1     
@<TRIPOS>SUBSTRUCTURE
      1 ****           1
@<TRIPOS>SET
DONOR_HYDROGENS      STATIC     ATOMS    <user>   **** ""
2 29 30
ATOM$RED        STATIC     ATOMS    COLORGROUP SYSTEM
2 29 30
@<TRIPOS>COMMENT
> <Gold.Version>
2022.2.0

> <Gold.Id.Protein>
3pbl|protein|mol2

> <Gold.Protein.RotatedTorsions>
[ 1303 1298 1297 1294 ] final  111.74 input  179.99 | X-H torsion
[ 2461 2456 2455 2452 ] final  -52.83 input   30.03 | X-H torsion
[ 2515 2510 2509 2506 ] final  -57.39 input  -89.99 | X-H torsion
[ 3721 3712 3711 3710 ] final -122.01 input -179.91 | X-H torsion
[ 3841 3832 3831 3830 ] final -165.90 input -179.91 | X-H torsion
[ 3767 3762 3761 3758 ] final   -5.68 input  -89.99 | X-H torsion
[ 2472 2467 2466 2463 ] final   88.92 input  -89.97 | X-H torsion

> <Gold.Protein.ActiveResidues>
 VAL82   VAL86   LEU89   PHE106  VAL107  ASP110  VAL111  MET112  CYS114  THR115 
 CYS181  SER182  ILE183  PHE188  VAL189  ILE190  SER192  SER193  SER196  TRP342 
 PHE345  PHE346  HIS349  VAL350  TYR365  THR369  GLY372  TYR373 

> <Gold.Protein.RotatedAtoms>
    4.6657   -9.8827    4.9405 H   0  0  0  0  0  0  0  0  0  0  0  0  # atno 1303 bound_to 1298
    0.4110   -8.4746    7.2966 H   0  0  0  0  0  0  0  0  0  0  0  0  # atno 2461 bound_to 2456
   -5.0865   -4.9144    7.7864 H   0  0  0  0  0  0  0  0  0  0  0  0  # atno 2472 bound_to 2467
    2.8182   -8.4583    4.3745 H   0  0  0  0  0  0  0  0  0  0  0  0  # atno 2515 bound_to 2510
   -3.2278  -16.6422   14.3805 H   0  0  0  0  0  0  0  0  0  0  0  0  # atno 3721 bound_to 3712
   -5.3712  -22.6465   10.1859 H   0  0  0  0  0  0  0  0  0  0  0  0  # atno 3767 bound_to 3762
    2.8188  -19.8975    8.3609 H   0  0  0  0  0  0  0  0  0  0  0  0  # atno 3841 bound_to 3832
    3.3516   -9.7602    3.9791 LP  0  0  0  0  0  0  0  0  0  0  0  0  # atno 4297 bound_to 1298
    4.3446   -8.4783    4.1718 LP  0  0  0  0  0  0  0  0  0  0  0  0  # atno 4298 bound_to 1298
    1.3379   -9.2503    8.3950 LP  0  0  0  0  0  0  0  0  0  0  0  0  # atno 4299 bound_to 2456
    1.9886   -8.0833    7.4563 LP  0  0  0  0  0  0  0  0  0  0  0  0  # atno 4300 bound_to 2456
    2.3414   -9.0638    5.8138 LP  0  0  0  0  0  0  0  0  0  0  0  0  # atno 4301 bound_to 2510
    2.1369   -7.4769    5.4874 LP  0  0  0  0  0  0  0  0  0  0  0  0  # atno 4302 bound_to 2510
   -3.1740  -17.3835   12.9573 LP  0  0  0  0  0  0  0  0  0  0  0  0  # atno 4306 bound_to 3712
   -2.6271  -18.1291   14.3033 LP  0  0  0  0  0  0  0  0  0  0  0  0  # atno 4307 bound_to 3712
    2.5798  -21.1578    9.3256 LP  0  0  0  0  0  0  0  0  0  0  0  0  # atno 4314 bound_to 3832
    1.3934  -20.0629    9.0799 LP  0  0  0  0  0  0  0  0  0  0  0  0  # atno 4315 bound_to 3832
   -4.7701  -21.9992   11.5595 LP  0  0  0  0  0  0  0  0  0  0  0  0  # atno 4318 bound_to 3762
   -3.9863  -23.2294   10.8254 LP  0  0  0  0  0  0  0  0  0  0  0  0  # atno 4319 bound_to 3762
   -3.6361   -5.0216    8.5289 LP  0  0  0  0  0  0  0  0  0  0  0  0  # atno 4320 bound_to 2467
   -4.9944   -5.4575    9.3236 LP  0  0  0  0  0  0  0  0  0  0  0  0  # atno 4321 bound_to 2467

> <Gold.Score>
     Score     S(PLP)   S(hbond)     S(cho)   S(metal)  DE(clash)   DE(tors)     intcor
     43.96     -39.57       2.00       0.00       0.00       0.00       0.80       0.00

> <Gold.PLP.Fitness>
43.9575

> <Gold.PLP.PLP>
-39.5667

> <Gold.PLP.part.hbond>
-1.0000

> <Gold.PLP.part.metal>
0.0000

> <Gold.PLP.part.buried>
-7.5588

> <Gold.PLP.part.nonpolar>
-32.0902

> <Gold.PLP.part.repulsive>
0.1320

> <Gold.PLP.ligand.clash>
0.0000

> <Gold.PLP.ligand.torsion>
0.8047

> <Gold.PLP.Chemscore.Hbond>
2.0000

> <Gold.PLP.Chemscore.CHOScore>
0.0000

> <Gold.PLP.Chemscore.Metal>
0.0000

> <Gold.Chemscore.Hbonds>
donor molecule, donor type, donor heavy atom, donor atom, acceptor molecule, acceptor atom, score
      L1  H    14    29       P1  1227  2.00

> <Gold.PLP.Chemscore.Internal.Correction>
0.0002

