#       Name:                EN300-136798_i002
#       Creating user name   fsindt
#       Creation time:       Mon Feb 27 21:37:29 2023


#       File generated by GOLD software.
#

@<TRIPOS>MOLECULE
EN300-136798_i002|amine_3|mol2|877|dock19
    30    31     1
SMALL
USER_CHARGES


@<TRIPOS>ATOM
      1 C1          -2.5377  -9.7177   9.4076 C.3            1 <1>                0.0000
      2 O2          -2.1519 -10.7721  10.3284 O.3            1 <1>                0.0000
      3 C3          -1.2562 -11.6752   9.8837 C.2            1 <1>                0.0000
      4 O4          -0.7749 -11.5580   8.7741 O.2            1 <1>                0.0000
      5 C5          -0.8603 -12.8052  10.7431 C.2            1 <1>                0.0000
      6 C6           0.0052 -13.8055  10.3995 C.2            1 <1>                0.0000
      7 N7           0.0915 -14.6295  11.4626 N.pl3          1 <1>                0.0000
      8 N8          -0.7444 -14.0996  12.4557 N.2            1 <1>                0.0000
      9 N9          -1.2847 -13.0233  11.9999 N.2            1 <1>                0.0000
     10 C10          0.9025 -15.8454  11.5615 C.3            1 <1>                0.0000
     11 C11          1.8145 -15.7534  12.7883 C.3            1 <1>                0.0000
     12 C12          2.6004 -17.0605  12.9271 C.3            1 <1>                0.0000
     13 C13          1.6197 -18.2315  13.0201 C.3            1 <1>                0.0000
     14 N14          0.7951 -18.2812  11.8068 N.4            1 <1>                1.0000
     15 C15         -0.0152 -17.0615  11.7050 C.3            1 <1>                0.0000
     16 H16         -3.2618  -9.0611   9.8899 H              1 <1>                0.0000
     17 H17         -1.6565  -9.1417   9.1250 H              1 <1>                0.0000
     18 H18         -2.9844 -10.1590   8.5166 H              1 <1>                0.0000
     19 H19          0.5206 -13.9152   9.4568 H              1 <1>                0.0000
     20 H20          1.5105 -15.9515  10.6631 H              1 <1>                0.0000
     21 H21          2.5086 -14.9221  12.6650 H              1 <1>                0.0000
     22 H22          1.2095 -15.5953  13.6811 H              1 <1>                0.0000
     23 H23          3.2436 -17.1926  12.0572 H              1 <1>                0.0000
     24 H24          3.2106 -17.0242  13.8296 H              1 <1>                0.0000
     25 H25          2.1760 -19.1636  13.1191 H              1 <1>                0.0000
     26 H26          0.9772 -18.0986  13.8904 H              1 <1>                0.0000
     27 H27         -0.6229 -16.9535  12.6034 H              1 <1>                0.0000
     28 H28         -0.6660 -17.1299  10.8334 H              1 <1>                0.0000
     29 H29          1.3931 -18.3550  10.9976 H              1 <1>                0.0000
     30 H30          0.1869 -19.0853  11.8475 H              1 <1>                0.0000
@<TRIPOS>BOND
    1    1    2 1     
    2    1   16 1     
    3    1   17 1     
    4    1   18 1     
    5    2    3 1     
    6    3    4 2     
    7    3    5 1     
    8    5    6 2     
    9    5    9 1     
   10    6    7 1     
   11    6   19 1     
   12    7    8 1     
   13    7   10 1     
   14    8    9 2     
   15   10   11 1     
   16   10   15 1     
   17   10   20 1     
   18   11   12 1     
   19   11   21 1     
   20   11   22 1     
   21   12   13 1     
   22   12   23 1     
   23   12   24 1     
   24   13   14 1     
   25   13   25 1     
   26   13   26 1     
   27   14   15 1     
   28   14   29 1     
   29   14   30 1     
   30   15   27 1     
   31   15   28 1     
@<TRIPOS>SUBSTRUCTURE
      1 ****           1
@<TRIPOS>SET
DONOR_HYDROGENS      STATIC     ATOMS    <user>   **** ""
2 29 30
ATOM$RED        STATIC     ATOMS    COLORGROUP SYSTEM
2 29 30
@<TRIPOS>COMMENT
> <Gold.Version>
2022.2.0

> <Gold.Id.Protein>
3pbl|protein|mol2

> <Gold.Protein.RotatedTorsions>
[ 1303 1298 1297 1294 ] final   53.11 input  179.99 | X-H torsion
[ 2461 2456 2455 2452 ] final  165.41 input   30.03 | X-H torsion
[ 2515 2510 2509 2506 ] final  -24.92 input  -89.99 | X-H torsion
[ 3721 3712 3711 3710 ] final    5.80 input -179.91 | X-H torsion
[ 3841 3832 3831 3830 ] final -106.06 input -179.91 | X-H torsion
[ 3767 3762 3761 3758 ] final -121.14 input  -89.99 | X-H torsion
[ 2472 2467 2466 2463 ] final  -77.02 input  -89.97 | X-H torsion

> <Gold.Protein.ActiveResidues>
 VAL82   VAL86   LEU89   PHE106  VAL107  ASP110  VAL111  MET112  CYS114  THR115 
 CYS181  SER182  ILE183  PHE188  VAL189  ILE190  SER192  SER193  SER196  TRP342 
 PHE345  PHE346  HIS349  VAL350  TYR365  THR369  GLY372  TYR373 

> <Gold.Protein.RotatedAtoms>
    3.9150  -10.2704    4.5692 H   0  0  0  0  0  0  0  0  0  0  0  0  # atno 1303 bound_to 1298
    1.6691   -9.1205    8.3811 H   0  0  0  0  0  0  0  0  0  0  0  0  # atno 2461 bound_to 2456
   -3.8829   -5.2812    9.1718 H   0  0  0  0  0  0  0  0  0  0  0  0  # atno 2472 bound_to 2467
    2.6946   -7.9470    4.4063 H   0  0  0  0  0  0  0  0  0  0  0  0  # atno 2515 bound_to 2510
   -2.4769  -17.9869   14.1607 H   0  0  0  0  0  0  0  0  0  0  0  0  # atno 3721 bound_to 3712
   -4.8329  -21.9739   11.5278 H   0  0  0  0  0  0  0  0  0  0  0  0  # atno 3767 bound_to 3762
    2.0404  -19.5802    8.5588 H   0  0  0  0  0  0  0  0  0  0  0  0  # atno 3841 bound_to 3832
    3.5619   -8.8825    3.7847 LP  0  0  0  0  0  0  0  0  0  0  0  0  # atno 4297 bound_to 1298
    4.8854   -8.9680    4.7375 LP  0  0  0  0  0  0  0  0  0  0  0  0  # atno 4298 bound_to 1298
    1.7373   -7.9542    7.2398 LP  0  0  0  0  0  0  0  0  0  0  0  0  # atno 4299 bound_to 2456
    0.3315   -8.7336    7.5275 LP  0  0  0  0  0  0  0  0  0  0  0  0  # atno 4300 bound_to 2456
    2.5667   -9.2538    5.3768 LP  0  0  0  0  0  0  0  0  0  0  0  0  # atno 4301 bound_to 2510
    2.0353   -7.7985    5.8926 LP  0  0  0  0  0  0  0  0  0  0  0  0  # atno 4302 bound_to 2510
   -3.4073  -16.7320   14.5316 LP  0  0  0  0  0  0  0  0  0  0  0  0  # atno 4306 bound_to 3712
   -3.2608  -17.2281   12.9827 LP  0  0  0  0  0  0  0  0  0  0  0  0  # atno 4307 bound_to 3712
    3.1187  -20.7662    8.6413 LP  0  0  0  0  0  0  0  0  0  0  0  0  # atno 4314 bound_to 3832
    1.7536  -20.8210    9.5357 LP  0  0  0  0  0  0  0  0  0  0  0  0  # atno 4315 bound_to 3832
   -3.9609  -23.1978   10.8885 LP  0  0  0  0  0  0  0  0  0  0  0  0  # atno 4318 bound_to 3762
   -5.3335  -22.7031   10.1550 LP  0  0  0  0  0  0  0  0  0  0  0  0  # atno 4319 bound_to 3762
   -5.4676   -5.3133    8.7791 LP  0  0  0  0  0  0  0  0  0  0  0  0  # atno 4320 bound_to 2467
   -4.3663   -4.7991    7.6884 LP  0  0  0  0  0  0  0  0  0  0  0  0  # atno 4321 bound_to 2467

> <Gold.Score>
     Score     S(PLP)   S(hbond)     S(cho)   S(metal)  DE(clash)   DE(tors)     intcor
     40.87     -34.99       2.00       0.00       0.00       0.00       0.06       0.00

> <Gold.PLP.Fitness>
40.8748

> <Gold.PLP.PLP>
-34.9881

> <Gold.PLP.part.hbond>
-2.4987

> <Gold.PLP.part.metal>
0.0000

> <Gold.PLP.part.buried>
-0.9424

> <Gold.PLP.part.nonpolar>
-33.3060

> <Gold.PLP.part.repulsive>
0.2395

> <Gold.PLP.ligand.clash>
0.0000

> <Gold.PLP.ligand.torsion>
0.0567

> <Gold.PLP.Chemscore.Hbond>
2.0000

> <Gold.PLP.Chemscore.CHOScore>
0.0000

> <Gold.PLP.Chemscore.Metal>
0.0000

> <Gold.Chemscore.Hbonds>
donor molecule, donor type, donor heavy atom, donor atom, acceptor molecule, acceptor atom, score
      L1  H    14    29       P1  1227  2.00

> <Gold.PLP.Chemscore.Internal.Correction>
0.0002

