#       Name:                EN300-136798_i002
#       Creating user name   fsindt
#       Creation time:       Mon Feb 27 21:37:19 2023


#       File generated by GOLD software.
#

@<TRIPOS>MOLECULE
EN300-136798_i002|amine_3|mol2|877|dock3
    30    31     1
SMALL
USER_CHARGES


@<TRIPOS>ATOM
      1 C1           0.2798 -16.1166  13.8611 C.3            1 <1>                0.0000
      2 O2          -0.3135 -15.2133  12.8914 O.3            1 <1>                0.0000
      3 C3           0.4385 -14.8826  11.8233 C.2            1 <1>                0.0000
      4 O4           1.5603 -15.3350  11.7065 O.2            1 <1>                0.0000
      5 C5          -0.0995 -13.9722  10.7967 C.2            1 <1>                0.0000
      6 C6          -1.1266 -13.0878  10.9720 C.2            1 <1>                0.0000
      7 N7          -1.3012 -12.4539   9.7955 N.pl3          1 <1>                0.0000
      8 N8          -0.3525 -12.9793   8.9067 N.2            1 <1>                0.0000
      9 N9           0.3409 -13.8667   9.5309 N.2            1 <1>                0.0000
     10 C10         -2.2920 -11.4157   9.5014 C.3            1 <1>                0.0000
     11 C11         -3.6933 -11.9382   9.8313 C.3            1 <1>                0.0000
     12 C12         -4.7128 -10.8202   9.5951 C.3            1 <1>                0.0000
     13 C13         -4.3333  -9.6037  10.4422 C.3            1 <1>                0.0000
     14 N14         -2.9951  -9.1361  10.0612 N.4            1 <1>                1.0000
     15 C15         -2.0021 -10.1771  10.3521 C.3            1 <1>                0.0000
     16 H16         -0.4294 -16.3000  14.6682 H              1 <1>                0.0000
     17 H17          0.5283 -17.0598  13.3744 H              1 <1>                0.0000
     18 H18          1.1859 -15.6682  14.2685 H              1 <1>                0.0000
     19 H19         -1.6906 -12.9280  11.8790 H              1 <1>                0.0000
     20 H20         -2.2410 -11.1526   8.4450 H              1 <1>                0.0000
     21 H21         -3.9268 -12.7864   9.1879 H              1 <1>                0.0000
     22 H22         -3.7296 -12.2500  10.8751 H              1 <1>                0.0000
     23 H23         -4.7124 -10.5439   8.5407 H              1 <1>                0.0000
     24 H24         -5.7060 -11.1670   9.8807 H              1 <1>                0.0000
     25 H25         -5.0573  -8.8059  10.2765 H              1 <1>                0.0000
     26 H26         -4.3343  -9.8809  11.4964 H              1 <1>                0.0000
     27 H27         -2.0528 -10.4422  11.4081 H              1 <1>                0.0000
     28 H28         -1.0052  -9.8028  10.1198 H              1 <1>                0.0000
     29 H29         -2.9816  -8.9260   9.0744 H              1 <1>                0.0000
     30 H30         -2.7698  -8.3026  10.5835 H              1 <1>                0.0000
@<TRIPOS>BOND
    1    1    2 1     
    2    1   16 1     
    3    1   17 1     
    4    1   18 1     
    5    2    3 1     
    6    3    4 2     
    7    3    5 1     
    8    5    6 2     
    9    5    9 1     
   10    6    7 1     
   11    6   19 1     
   12    7    8 1     
   13    7   10 1     
   14    8    9 2     
   15   10   11 1     
   16   10   15 1     
   17   10   20 1     
   18   11   12 1     
   19   11   21 1     
   20   11   22 1     
   21   12   13 1     
   22   12   23 1     
   23   12   24 1     
   24   13   14 1     
   25   13   25 1     
   26   13   26 1     
   27   14   15 1     
   28   14   29 1     
   29   14   30 1     
   30   15   27 1     
   31   15   28 1     
@<TRIPOS>SUBSTRUCTURE
      1 ****           1
@<TRIPOS>SET
DONOR_HYDROGENS      STATIC     ATOMS    <user>   **** ""
2 29 30
ATOM$RED        STATIC     ATOMS    COLORGROUP SYSTEM
2 29 30
@<TRIPOS>COMMENT
> <Gold.Version>
2022.2.0

> <Gold.Id.Protein>
3pbl|protein|mol2

> <Gold.Protein.RotatedTorsions>
[ 1303 1298 1297 1294 ] final  -16.77 input  179.99 | X-H torsion
[ 2461 2456 2455 2452 ] final -142.08 input   30.03 | X-H torsion
[ 2515 2510 2509 2506 ] final   64.59 input  -89.99 | X-H torsion
[ 3721 3712 3711 3710 ] final -163.18 input -179.91 | X-H torsion
[ 3841 3832 3831 3830 ] final  144.42 input -179.91 | X-H torsion
[ 3767 3762 3761 3758 ] final   17.78 input  -89.99 | X-H torsion
[ 2472 2467 2466 2463 ] final  -83.68 input  -89.97 | X-H torsion

> <Gold.Protein.ActiveResidues>
 VAL82   VAL86   LEU89   PHE106  VAL107  ASP110  VAL111  MET112  CYS114  THR115 
 CYS181  SER182  ILE183  PHE188  VAL189  ILE190  SER192  SER193  SER196  TRP342 
 PHE345  PHE346  HIS349  VAL350  TYR365  THR369  GLY372  TYR373 

> <Gold.Protein.RotatedAtoms>
    3.3325   -9.6358    3.9182 H   0  0  0  0  0  0  0  0  0  0  0  0  # atno 1303 bound_to 1298
    0.8592   -9.2750    8.2526 H   0  0  0  0  0  0  0  0  0  0  0  0  # atno 2461 bound_to 2456
   -3.9613   -5.3147    9.2406 H   0  0  0  0  0  0  0  0  0  0  0  0  # atno 2472 bound_to 2467
    2.1279   -7.4898    5.5158 H   0  0  0  0  0  0  0  0  0  0  0  0  # atno 2515 bound_to 2510
   -3.3388  -16.5400   13.7903 H   0  0  0  0  0  0  0  0  0  0  0  0  # atno 3721 bound_to 3712
   -5.1363  -22.9275   10.0726 H   0  0  0  0  0  0  0  0  0  0  0  0  # atno 3767 bound_to 3762
    3.1319  -20.4709    8.6804 H   0  0  0  0  0  0  0  0  0  0  0  0  # atno 3841 bound_to 3832
    4.4546   -8.4986    4.2561 LP  0  0  0  0  0  0  0  0  0  0  0  0  # atno 4297 bound_to 1298
    4.5754   -9.9868    4.9175 LP  0  0  0  0  0  0  0  0  0  0  0  0  # atno 4298 bound_to 1298
    2.1577   -8.3853    7.8171 LP  0  0  0  0  0  0  0  0  0  0  0  0  # atno 4299 bound_to 2456
    0.7207   -8.1481    7.0786 LP  0  0  0  0  0  0  0  0  0  0  0  0  # atno 4300 bound_to 2456
    2.8139   -8.4267    4.3681 LP  0  0  0  0  0  0  0  0  0  0  0  0  # atno 4301 bound_to 2510
    2.3550   -9.0830    5.7912 LP  0  0  0  0  0  0  0  0  0  0  0  0  # atno 4302 bound_to 2510
   -2.8416  -17.9317   13.1628 LP  0  0  0  0  0  0  0  0  0  0  0  0  # atno 4306 bound_to 3712
   -2.8314  -17.6988   14.7791 LP  0  0  0  0  0  0  0  0  0  0  0  0  # atno 4307 bound_to 3712
    1.8506  -20.9001    9.5465 LP  0  0  0  0  0  0  0  0  0  0  0  0  # atno 4314 bound_to 3832
    1.7610  -19.6582    8.4900 LP  0  0  0  0  0  0  0  0  0  0  0  0  # atno 4315 bound_to 3832
   -5.0835  -21.9171   11.3545 LP  0  0  0  0  0  0  0  0  0  0  0  0  # atno 4318 bound_to 3762
   -3.9078  -23.0306   11.1436 LP  0  0  0  0  0  0  0  0  0  0  0  0  # atno 4319 bound_to 3762
   -5.4939   -5.2798    8.6781 LP  0  0  0  0  0  0  0  0  0  0  0  0  # atno 4320 bound_to 2467
   -4.2615   -4.7991    7.7206 LP  0  0  0  0  0  0  0  0  0  0  0  0  # atno 4321 bound_to 2467

> <Gold.Score>
     Score     S(PLP)   S(hbond)     S(cho)   S(metal)  DE(clash)   DE(tors)     intcor
     48.04     -45.51       1.00       0.00       0.00       0.00       0.23       0.00

> <Gold.PLP.Fitness>
48.0442

> <Gold.PLP.PLP>
-45.5118

> <Gold.PLP.part.hbond>
-1.0000

> <Gold.PLP.part.metal>
0.0000

> <Gold.PLP.part.buried>
-6.6520

> <Gold.PLP.part.nonpolar>
-39.8370

> <Gold.PLP.part.repulsive>
0.3042

> <Gold.PLP.ligand.clash>
0.0000

> <Gold.PLP.ligand.torsion>
0.2339

> <Gold.PLP.Chemscore.Hbond>
1.0000

> <Gold.PLP.Chemscore.CHOScore>
0.0000

> <Gold.PLP.Chemscore.Metal>
0.0000

> <Gold.Chemscore.Hbonds>
donor molecule, donor type, donor heavy atom, donor atom, acceptor molecule, acceptor atom, score
      L1  H    14    30       P1  2398  1.00

> <Gold.PLP.Chemscore.Internal.Correction>
0.0002

