#       Name:                EN300-136798_i002
#       Creating user name   fsindt
#       Creation time:       Mon Feb 27 21:37:21 2023


#       File generated by GOLD software.
#

@<TRIPOS>MOLECULE
EN300-136798_i002|amine_3|mol2|877|dock6
    30    31     1
SMALL
USER_CHARGES


@<TRIPOS>ATOM
      1 C1           2.0010 -17.9029  14.4354 C.3            1 <1>                0.0000
      2 O2           1.6592 -17.0926  13.2800 O.3            1 <1>                0.0000
      3 C3           0.7208 -16.1416  13.4557 C.2            1 <1>                0.0000
      4 O4           0.1426 -16.0481  14.5204 O.2            1 <1>                0.0000
      5 C5           0.3957 -15.2151  12.3566 C.2            1 <1>                0.0000
      6 C6           1.1546 -15.0021  11.2402 C.2            1 <1>                0.0000
      7 N7           0.5040 -14.0871  10.4946 N.pl3          1 <1>                0.0000
      8 N8          -0.6668 -13.7544  11.1907 N.2            1 <1>                0.0000
      9 N9          -0.7005 -14.4407  12.2796 N.2            1 <1>                0.0000
     10 C10          0.9369 -13.5441   9.2047 C.3            1 <1>                0.0000
     11 C11          0.0885 -14.1514   8.0836 C.3            1 <1>                0.0000
     12 C12          0.4957 -13.5196   6.7493 C.3            1 <1>                0.0000
     13 C13          0.3348 -12.0006   6.8403 C.3            1 <1>                0.0000
     14 N14          1.1904 -11.4777   7.9123 N.4            1 <1>                1.0000
     15 C15          0.7596 -12.0241   9.2047 C.3            1 <1>                0.0000
     16 H16          2.7665 -18.6274  14.1574 H              1 <1>                0.0000
     17 H17          2.3802 -17.2606  15.2303 H              1 <1>                0.0000
     18 H18          1.1130 -18.4290  14.7858 H              1 <1>                0.0000
     19 H19          2.0955 -15.4755  11.0015 H              1 <1>                0.0000
     20 H20          1.9862 -13.7888   9.0404 H              1 <1>                0.0000
     21 H21          0.2549 -15.2278   8.0429 H              1 <1>                0.0000
     22 H22         -0.9657 -13.9512   8.2750 H              1 <1>                0.0000
     23 H23          1.5360 -13.7631   6.5336 H              1 <1>                0.0000
     24 H24         -0.1417 -13.9061   5.9540 H              1 <1>                0.0000
     25 H25          0.6237 -11.5476   5.8920 H              1 <1>                0.0000
     26 H26         -0.7058 -11.7581   7.0557 H              1 <1>                0.0000
     27 H27         -0.2900 -11.7812   9.3698 H              1 <1>                0.0000
     28 H28          1.3621 -11.5887  10.0018 H              1 <1>                0.0000
     29 H29          2.1476 -11.7446   7.7376 H              1 <1>                0.0000
     30 H30          1.1227 -10.4712   7.9345 H              1 <1>                0.0000
@<TRIPOS>BOND
    1    1    2 1     
    2    1   16 1     
    3    1   17 1     
    4    1   18 1     
    5    2    3 1     
    6    3    4 2     
    7    3    5 1     
    8    5    6 2     
    9    5    9 1     
   10    6    7 1     
   11    6   19 1     
   12    7    8 1     
   13    7   10 1     
   14    8    9 2     
   15   10   11 1     
   16   10   15 1     
   17   10   20 1     
   18   11   12 1     
   19   11   21 1     
   20   11   22 1     
   21   12   13 1     
   22   12   23 1     
   23   12   24 1     
   24   13   14 1     
   25   13   25 1     
   26   13   26 1     
   27   14   15 1     
   28   14   29 1     
   29   14   30 1     
   30   15   27 1     
   31   15   28 1     
@<TRIPOS>SUBSTRUCTURE
      1 ****           1
@<TRIPOS>SET
DONOR_HYDROGENS      STATIC     ATOMS    <user>   **** ""
2 29 30
ATOM$RED        STATIC     ATOMS    COLORGROUP SYSTEM
2 29 30
@<TRIPOS>COMMENT
> <Gold.Version>
2022.2.0

> <Gold.Id.Protein>
3pbl|protein|mol2

> <Gold.Protein.RotatedTorsions>
[ 1303 1298 1297 1294 ] final  128.13 input  179.99 | X-H torsion
[ 2461 2456 2455 2452 ] final   74.50 input   30.03 | X-H torsion
[ 2515 2510 2509 2506 ] final   81.70 input  -89.99 | X-H torsion
[ 3721 3712 3711 3710 ] final    0.76 input -179.91 | X-H torsion
[ 3841 3832 3831 3830 ] final   -0.67 input -179.91 | X-H torsion
[ 3767 3762 3761 3758 ] final -101.48 input  -89.99 | X-H torsion
[ 2472 2467 2466 2463 ] final  -28.89 input  -89.97 | X-H torsion

> <Gold.Protein.ActiveResidues>
 VAL82   VAL86   LEU89   PHE106  VAL107  ASP110  VAL111  MET112  CYS114  THR115 
 CYS181  SER182  ILE183  PHE188  VAL189  ILE190  SER192  SER193  SER196  TRP342 
 PHE345  PHE346  HIS349  VAL350  TYR365  THR369  GLY372  TYR373 

> <Gold.Protein.RotatedAtoms>
    4.8053   -9.6532    4.9485 H   0  0  0  0  0  0  0  0  0  0  0  0  # atno 1303 bound_to 1298
    2.0510   -8.1445    7.5394 H   0  0  0  0  0  0  0  0  0  0  0  0  # atno 2461 bound_to 2456
   -3.6387   -5.0105    8.4949 H   0  0  0  0  0  0  0  0  0  0  0  0  # atno 2472 bound_to 2467
    2.0634   -7.6386    5.7446 H   0  0  0  0  0  0  0  0  0  0  0  0  # atno 2515 bound_to 2510
   -2.4854  -17.9610   14.2319 H   0  0  0  0  0  0  0  0  0  0  0  0  # atno 3721 bound_to 3712
   -5.0924  -21.9158   11.3462 H   0  0  0  0  0  0  0  0  0  0  0  0  # atno 3767 bound_to 3762
    1.7310  -20.4791    9.5552 H   0  0  0  0  0  0  0  0  0  0  0  0  # atno 3841 bound_to 3832
    3.4352   -9.9733    4.1199 LP  0  0  0  0  0  0  0  0  0  0  0  0  # atno 4297 bound_to 1298
    4.1214   -8.4947    4.0230 LP  0  0  0  0  0  0  0  0  0  0  0  0  # atno 4298 bound_to 1298
    0.4661   -8.3897    7.2310 LP  0  0  0  0  0  0  0  0  0  0  0  0  # atno 4299 bound_to 2456
    1.2209   -9.2738    8.3777 LP  0  0  0  0  0  0  0  0  0  0  0  0  # atno 4300 bound_to 2456
    2.7584   -8.1519    4.3592 LP  0  0  0  0  0  0  0  0  0  0  0  0  # atno 4301 bound_to 2510
    2.4751   -9.2090    5.5711 LP  0  0  0  0  0  0  0  0  0  0  0  0  # atno 4302 bound_to 2510
   -3.4375  -16.6895   14.4655 LP  0  0  0  0  0  0  0  0  0  0  0  0  # atno 4306 bound_to 3712
   -3.2208  -17.3005   12.9667 LP  0  0  0  0  0  0  0  0  0  0  0  0  # atno 4307 bound_to 3712
    2.1546  -19.6559    8.2441 LP  0  0  0  0  0  0  0  0  0  0  0  0  # atno 4314 bound_to 3832
    3.0751  -20.8929    8.7817 LP  0  0  0  0  0  0  0  0  0  0  0  0  # atno 4315 bound_to 3832
   -3.9074  -23.0228   11.1534 LP  0  0  0  0  0  0  0  0  0  0  0  0  # atno 4318 bound_to 3762
   -5.1277  -22.9362   10.0717 LP  0  0  0  0  0  0  0  0  0  0  0  0  # atno 4319 bound_to 3762
   -4.9621   -5.4596    9.3395 LP  0  0  0  0  0  0  0  0  0  0  0  0  # atno 4320 bound_to 2467
   -5.1160   -4.9234    7.8047 LP  0  0  0  0  0  0  0  0  0  0  0  0  # atno 4321 bound_to 2467

> <Gold.Score>
     Score     S(PLP)   S(hbond)     S(cho)   S(metal)  DE(clash)   DE(tors)     intcor
     45.56     -37.55       2.00       1.00       0.00       0.00       0.49       0.00

> <Gold.PLP.Fitness>
45.5553

> <Gold.PLP.PLP>
-37.5464

> <Gold.PLP.part.hbond>
-1.9868

> <Gold.PLP.part.metal>
0.0000

> <Gold.PLP.part.buried>
-4.9190

> <Gold.PLP.part.nonpolar>
-31.3918

> <Gold.PLP.part.repulsive>
0.2442

> <Gold.PLP.ligand.clash>
0.0000

> <Gold.PLP.ligand.torsion>
0.4914

> <Gold.PLP.Chemscore.Hbond>
2.0000

> <Gold.PLP.Chemscore.CHOScore>
0.9972

> <Gold.PLP.Chemscore.Metal>
0.0000

> <Gold.Chemscore.Hbonds>
donor molecule, donor type, donor heavy atom, donor atom, acceptor molecule, acceptor atom, score
      L1  H    14    30       P1  2456  1.00
      P1  H  2305  2313       L1     4  1.00
      L1  C     6    19       P1  1227  1.00

> <Gold.PLP.Chemscore.Internal.Correction>
0.0002

