#       Name:                EN300-136798_i002
#       Creating user name   fsindt
#       Creation time:       Mon Feb 27 21:37:21 2023


#       File generated by GOLD software.
#

@<TRIPOS>MOLECULE
EN300-136798_i002|amine_3|mol2|877|dock7
    30    31     1
SMALL
USER_CHARGES


@<TRIPOS>ATOM
      1 C1          -0.1081 -24.6016  14.8938 C.3            1 <1>                0.0000
      2 O2           0.1764 -23.1970  14.6603 O.3            1 <1>                0.0000
      3 C3          -0.5207 -22.3024  15.3880 C.2            1 <1>                0.0000
      4 O4          -1.1646 -22.6717  16.3501 O.2            1 <1>                0.0000
      5 C5          -0.5022 -20.8762  15.0169 C.2            1 <1>                0.0000
      6 C6           0.2037 -20.3287  13.9827 C.2            1 <1>                0.0000
      7 N7          -0.0556 -19.0060  13.9900 N.pl3          1 <1>                0.0000
      8 N8          -0.9362 -18.7709  15.0554 N.2            1 <1>                0.0000
      9 N9          -1.1816 -19.8943  15.6348 N.2            1 <1>                0.0000
     10 C10          0.4800 -18.0060  13.0631 C.3            1 <1>                0.0000
     11 C11         -0.1164 -16.6340  13.3905 C.3            1 <1>                0.0000
     12 C12          0.5083 -15.5835  12.4679 C.3            1 <1>                0.0000
     13 C13          2.0295 -15.6085  12.6318 C.3            1 <1>                0.0000
     14 N14          2.5413 -16.9382  12.2788 N.4            1 <1>                1.0000
     15 C15          2.0023 -17.9414  13.2048 C.3            1 <1>                0.0000
     16 H16          0.5201 -25.2122  14.2452 H              1 <1>                0.0000
     17 H17          0.0995 -24.8460  15.9356 H              1 <1>                0.0000
     18 H18         -1.1573 -24.8009  14.6759 H              1 <1>                0.0000
     19 H19          0.8465 -20.8546  13.2924 H              1 <1>                0.0000
     20 H20          0.2203 -18.2812  12.0409 H              1 <1>                0.0000
     21 H21         -1.1951 -16.6593  13.2363 H              1 <1>                0.0000
     22 H22          0.0988 -16.3815  14.4288 H              1 <1>                0.0000
     23 H23          0.2500 -15.8079  11.4331 H              1 <1>                0.0000
     24 H24          0.1300 -14.5959  12.7321 H              1 <1>                0.0000
     25 H25          2.4775 -14.8616  11.9764 H              1 <1>                0.0000
     26 H26          2.2869 -15.3836  13.6668 H              1 <1>                0.0000
     27 H27          2.2601 -17.6668  14.2277 H              1 <1>                0.0000
     28 H28          2.4300 -18.9166  12.9726 H              1 <1>                0.0000
     29 H29          2.2608 -17.1663  11.3368 H              1 <1>                0.0000
     30 H30          3.5487 -16.9359  12.3363 H              1 <1>                0.0000
@<TRIPOS>BOND
    1    1    2 1     
    2    1   16 1     
    3    1   17 1     
    4    1   18 1     
    5    2    3 1     
    6    3    4 2     
    7    3    5 1     
    8    5    6 2     
    9    5    9 1     
   10    6    7 1     
   11    6   19 1     
   12    7    8 1     
   13    7   10 1     
   14    8    9 2     
   15   10   11 1     
   16   10   15 1     
   17   10   20 1     
   18   11   12 1     
   19   11   21 1     
   20   11   22 1     
   21   12   13 1     
   22   12   23 1     
   23   12   24 1     
   24   13   14 1     
   25   13   25 1     
   26   13   26 1     
   27   14   15 1     
   28   14   29 1     
   29   14   30 1     
   30   15   27 1     
   31   15   28 1     
@<TRIPOS>SUBSTRUCTURE
      1 ****           1
@<TRIPOS>SET
DONOR_HYDROGENS      STATIC     ATOMS    <user>   **** ""
2 29 30
ATOM$RED        STATIC     ATOMS    COLORGROUP SYSTEM
2 29 30
@<TRIPOS>COMMENT
> <Gold.Version>
2022.2.0

> <Gold.Id.Protein>
3pbl|protein|mol2

> <Gold.Protein.RotatedTorsions>
[ 1303 1298 1297 1294 ] final  135.59 input  179.99 | X-H torsion
[ 2461 2456 2455 2452 ] final  110.12 input   30.03 | X-H torsion
[ 2515 2510 2509 2506 ] final -121.77 input  -89.99 | X-H torsion
[ 3721 3712 3711 3710 ] final   -6.90 input -179.91 | X-H torsion
[ 3841 3832 3831 3830 ] final -160.55 input -179.91 | X-H torsion
[ 3767 3762 3761 3758 ] final  141.67 input  -89.99 | X-H torsion
[ 2472 2467 2466 2463 ] final -101.89 input  -89.97 | X-H torsion

> <Gold.Protein.ActiveResidues>
 VAL82   VAL86   LEU89   PHE106  VAL107  ASP110  VAL111  MET112  CYS114  THR115 
 CYS181  SER182  ILE183  PHE188  VAL189  ILE190  SER192  SER193  SER196  TRP342 
 PHE345  PHE346  HIS349  VAL350  TYR365  THR369  GLY372  TYR373 

> <Gold.Protein.RotatedAtoms>
    4.8510   -9.5399    4.9362 H   0  0  0  0  0  0  0  0  0  0  0  0  # atno 1303 bound_to 1298
    2.1543   -8.5276    7.9581 H   0  0  0  0  0  0  0  0  0  0  0  0  # atno 2461 bound_to 2456
   -4.2142   -5.3922    9.3786 H   0  0  0  0  0  0  0  0  0  0  0  0  # atno 2472 bound_to 2467
    2.7056   -9.2130    5.0272 H   0  0  0  0  0  0  0  0  0  0  0  0  # atno 2515 bound_to 2510
   -2.5044  -17.9118   14.3347 H   0  0  0  0  0  0  0  0  0  0  0  0  # atno 3721 bound_to 3712
   -3.9070  -22.9895   11.1930 H   0  0  0  0  0  0  0  0  0  0  0  0  # atno 3767 bound_to 3762
    2.7581  -19.8450    8.3515 H   0  0  0  0  0  0  0  0  0  0  0  0  # atno 3841 bound_to 3832
    3.4923  -10.0552    4.1914 LP  0  0  0  0  0  0  0  0  0  0  0  0  # atno 4297 bound_to 1298
    4.0186   -8.5262    3.9638 LP  0  0  0  0  0  0  0  0  0  0  0  0  # atno 4298 bound_to 1298
    0.8910   -8.0499    7.0398 LP  0  0  0  0  0  0  0  0  0  0  0  0  # atno 4299 bound_to 2456
    0.6928   -9.2307    8.1503 LP  0  0  0  0  0  0  0  0  0  0  0  0  # atno 4300 bound_to 2456
    2.0383   -8.1381    6.0592 LP  0  0  0  0  0  0  0  0  0  0  0  0  # atno 4301 bound_to 2510
    2.5527   -7.6476    4.5890 LP  0  0  0  0  0  0  0  0  0  0  0  0  # atno 4302 bound_to 2510
   -3.4782  -16.6354   14.3570 LP  0  0  0  0  0  0  0  0  0  0  0  0  # atno 4306 bound_to 3712
   -3.1581  -17.4114   12.9563 LP  0  0  0  0  0  0  0  0  0  0  0  0  # atno 4307 bound_to 3712
    2.6538  -21.1531    9.2756 LP  0  0  0  0  0  0  0  0  0  0  0  0  # atno 4314 bound_to 3832
    1.3896  -20.1283    9.1408 LP  0  0  0  0  0  0  0  0  0  0  0  0  # atno 4315 bound_to 3832
   -5.0894  -22.9709   10.0667 LP  0  0  0  0  0  0  0  0  0  0  0  0  # atno 4318 bound_to 3762
   -5.1307  -21.9147   11.3115 LP  0  0  0  0  0  0  0  0  0  0  0  0  # atno 4319 bound_to 3762
   -5.5019   -5.1795    8.3973 LP  0  0  0  0  0  0  0  0  0  0  0  0  # atno 4320 bound_to 2467
   -4.0007   -4.8219    7.8634 LP  0  0  0  0  0  0  0  0  0  0  0  0  # atno 4321 bound_to 2467

> <Gold.Score>
     Score     S(PLP)   S(hbond)     S(cho)   S(metal)  DE(clash)   DE(tors)     intcor
     37.82     -29.15       3.00       0.00       0.00       0.00       0.16       0.00

> <Gold.PLP.Fitness>
37.8249

> <Gold.PLP.PLP>
-29.1505

> <Gold.PLP.part.hbond>
-2.0000

> <Gold.PLP.part.metal>
0.0000

> <Gold.PLP.part.buried>
-5.3184

> <Gold.PLP.part.nonpolar>
-22.2654

> <Gold.PLP.part.repulsive>
0.0550

> <Gold.PLP.ligand.clash>
0.0000

> <Gold.PLP.ligand.torsion>
0.1630

> <Gold.PLP.Chemscore.Hbond>
3.0000

> <Gold.PLP.Chemscore.CHOScore>
0.0000

> <Gold.PLP.Chemscore.Metal>
0.0000

> <Gold.Chemscore.Hbonds>
donor molecule, donor type, donor heavy atom, donor atom, acceptor molecule, acceptor atom, score
      L1  H    14    29       P1  1227  2.00
      P1  H  3712  3721       L1     8  1.00

> <Gold.PLP.Chemscore.Internal.Correction>
0.0002

