#       Name:                EN300-136798_i002
#       Creating user name   fsindt
#       Creation time:       Mon Feb 27 21:37:24 2023


#       File generated by GOLD software.
#

@<TRIPOS>MOLECULE
EN300-136798_i002|amine_3|mol2|877|dock11
    30    31     1
SMALL
USER_CHARGES


@<TRIPOS>ATOM
      1 C1           2.2939 -17.2279  13.4669 C.3            1 <1>                0.0000
      2 O2           1.3069 -16.7074  12.5378 O.3            1 <1>                0.0000
      3 C3           0.5259 -15.7004  12.9756 C.2            1 <1>                0.0000
      4 O4           0.2487 -15.6154  14.1557 O.2            1 <1>                0.0000
      5 C5           0.0078 -14.7020  12.0232 C.2            1 <1>                0.0000
      6 C6          -0.7483 -13.6095  12.3433 C.2            1 <1>                0.0000
      7 N7          -1.0082 -12.9630  11.1895 N.pl3          1 <1>                0.0000
      8 N8          -0.3890 -13.6945  10.1660 N.2            1 <1>                0.0000
      9 N9           0.2038 -14.7086  10.6932 N.2            1 <1>                0.0000
     10 C10         -1.7882 -11.7327  11.0344 C.3            1 <1>                0.0000
     11 C11         -0.9033 -10.6393  10.4288 C.3            1 <1>                0.0000
     12 C12         -1.7476  -9.3826  10.1983 C.3            1 <1>                0.0000
     13 C13         -2.9359  -9.7309   9.2994 C.3            1 <1>                0.0000
     14 N14         -3.7570 -10.7619   9.9454 N.4            1 <1>                1.0000
     15 C15         -2.9751 -11.9940  10.1045 C.3            1 <1>                0.0000
     16 H16          2.8535 -18.0324  12.9895 H              1 <1>                0.0000
     17 H17          2.9786 -16.4299  13.7544 H              1 <1>                0.0000
     18 H18          1.7907 -17.6121  14.3541 H              1 <1>                0.0000
     19 H19         -1.0753 -13.3199  13.3309 H              1 <1>                0.0000
     20 H20         -2.1529 -11.4077  12.0087 H              1 <1>                0.0000
     21 H21         -0.0874 -10.4096  11.1141 H              1 <1>                0.0000
     22 H22         -0.4964 -10.9844   9.4784 H              1 <1>                0.0000
     23 H23         -2.1122  -9.0084  11.1549 H              1 <1>                0.0000
     24 H24         -1.1382  -8.6181   9.7161 H              1 <1>                0.0000
     25 H25         -3.5390  -8.8383   9.1331 H              1 <1>                0.0000
     26 H26         -2.5703 -10.1046   8.3430 H              1 <1>                0.0000
     27 H27         -2.6085 -12.3195   9.1310 H              1 <1>                0.0000
     28 H28         -3.6069 -12.7720  10.5326 H              1 <1>                0.0000
     29 H29         -4.0547 -10.4342  10.8520 H              1 <1>                0.0000
     30 H30         -4.5678 -10.9508   9.3753 H              1 <1>                0.0000
@<TRIPOS>BOND
    1    1    2 1     
    2    1   16 1     
    3    1   17 1     
    4    1   18 1     
    5    2    3 1     
    6    3    4 2     
    7    3    5 1     
    8    5    6 2     
    9    5    9 1     
   10    6    7 1     
   11    6   19 1     
   12    7    8 1     
   13    7   10 1     
   14    8    9 2     
   15   10   11 1     
   16   10   15 1     
   17   10   20 1     
   18   11   12 1     
   19   11   21 1     
   20   11   22 1     
   21   12   13 1     
   22   12   23 1     
   23   12   24 1     
   24   13   14 1     
   25   13   25 1     
   26   13   26 1     
   27   14   15 1     
   28   14   29 1     
   29   14   30 1     
   30   15   27 1     
   31   15   28 1     
@<TRIPOS>SUBSTRUCTURE
      1 ****           1
@<TRIPOS>SET
DONOR_HYDROGENS      STATIC     ATOMS    <user>   **** ""
2 29 30
ATOM$RED        STATIC     ATOMS    COLORGROUP SYSTEM
2 29 30
@<TRIPOS>COMMENT
> <Gold.Version>
2022.2.0

> <Gold.Id.Protein>
3pbl|protein|mol2

> <Gold.Protein.RotatedTorsions>
[ 1303 1298 1297 1294 ] final   94.94 input  179.99 | X-H torsion
[ 2461 2456 2455 2452 ] final  -18.60 input   30.03 | X-H torsion
[ 2515 2510 2509 2506 ] final    9.58 input  -89.99 | X-H torsion
[ 3721 3712 3711 3710 ] final   76.53 input -179.91 | X-H torsion
[ 3841 3832 3831 3830 ] final   -0.86 input -179.91 | X-H torsion
[ 3767 3762 3761 3758 ] final -116.73 input  -89.99 | X-H torsion
[ 2472 2467 2466 2463 ] final  -22.30 input  -89.97 | X-H torsion

> <Gold.Protein.ActiveResidues>
 VAL82   VAL86   LEU89   PHE106  VAL107  ASP110  VAL111  MET112  CYS114  THR115 
 CYS181  SER182  ILE183  PHE188  VAL189  ILE190  SER192  SER193  SER196  TRP342 
 PHE345  PHE346  HIS349  VAL350  TYR365  THR369  GLY372  TYR373 

> <Gold.Protein.RotatedAtoms>
    4.4768  -10.0748    4.8838 H   0  0  0  0  0  0  0  0  0  0  0  0  # atno 1303 bound_to 1298
    0.7670   -8.1176    7.0643 H   0  0  0  0  0  0  0  0  0  0  0  0  # atno 2461 bound_to 2456
   -3.6551   -4.9757    8.3935 H   0  0  0  0  0  0  0  0  0  0  0  0  # atno 2472 bound_to 2467
    2.4747   -7.5392    4.7189 H   0  0  0  0  0  0  0  0  0  0  0  0  # atno 2515 bound_to 2510
   -2.6899  -17.7631   13.2068 H   0  0  0  0  0  0  0  0  0  0  0  0  # atno 3721 bound_to 3712
   -4.8935  -21.9539   11.4933 H   0  0  0  0  0  0  0  0  0  0  0  0  # atno 3767 bound_to 3762
    1.7294  -20.4769    9.5543 H   0  0  0  0  0  0  0  0  0  0  0  0  # atno 3841 bound_to 3832
    3.3308   -9.5093    3.8673 LP  0  0  0  0  0  0  0  0  0  0  0  0  # atno 4297 bound_to 1298
    4.5544   -8.5369    4.3403 LP  0  0  0  0  0  0  0  0  0  0  0  0  # atno 4298 bound_to 1298
    0.8097   -9.2652    8.2256 LP  0  0  0  0  0  0  0  0  0  0  0  0  # atno 4299 bound_to 2456
    2.1609   -8.4251    7.8580 LP  0  0  0  0  0  0  0  0  0  0  0  0  # atno 4300 bound_to 2456
    2.7586   -9.1405    4.8639 LP  0  0  0  0  0  0  0  0  0  0  0  0  # atno 4301 bound_to 2510
    2.0633   -8.3198    6.0926 LP  0  0  0  0  0  0  0  0  0  0  0  0  # atno 4302 bound_to 2510
   -2.8548  -17.6545   14.8002 LP  0  0  0  0  0  0  0  0  0  0  0  0  # atno 4306 bound_to 3712
   -3.5673  -16.5640   13.8154 LP  0  0  0  0  0  0  0  0  0  0  0  0  # atno 4307 bound_to 3712
    2.1575  -19.6565    8.2429 LP  0  0  0  0  0  0  0  0  0  0  0  0  # atno 4314 bound_to 3832
    3.0741  -20.8948    8.7841 LP  0  0  0  0  0  0  0  0  0  0  0  0  # atno 4315 bound_to 3832
   -3.9410  -23.1637   10.9493 LP  0  0  0  0  0  0  0  0  0  0  0  0  # atno 4318 bound_to 3762
   -5.2930  -22.7572   10.1287 LP  0  0  0  0  0  0  0  0  0  0  0  0  # atno 4319 bound_to 3762
   -4.8615   -5.4632    9.3800 LP  0  0  0  0  0  0  0  0  0  0  0  0  # atno 4320 bound_to 2467
   -5.2002   -4.9546    7.8656 LP  0  0  0  0  0  0  0  0  0  0  0  0  # atno 4321 bound_to 2467

> <Gold.Score>
     Score     S(PLP)   S(hbond)     S(cho)   S(metal)  DE(clash)   DE(tors)     intcor
     43.48     -41.23       1.00       0.00       0.00       0.00       0.38       0.00

> <Gold.PLP.Fitness>
43.4756

> <Gold.PLP.PLP>
-41.2341

> <Gold.PLP.part.hbond>
-1.0000

> <Gold.PLP.part.metal>
0.0000

> <Gold.PLP.part.buried>
-4.2190

> <Gold.PLP.part.nonpolar>
-37.1978

> <Gold.PLP.part.repulsive>
0.2275

> <Gold.PLP.ligand.clash>
0.0000

> <Gold.PLP.ligand.torsion>
0.3794

> <Gold.PLP.Chemscore.Hbond>
1.0000

> <Gold.PLP.Chemscore.CHOScore>
0.0000

> <Gold.PLP.Chemscore.Metal>
0.0000

> <Gold.Chemscore.Hbonds>
donor molecule, donor type, donor heavy atom, donor atom, acceptor molecule, acceptor atom, score
      P1  H  2305  2313       L1     4  1.00

> <Gold.PLP.Chemscore.Internal.Correction>
0.0002

