#       Name:                EN300-136798_i002
#       Creating user name   fsindt
#       Creation time:       Mon Feb 27 21:37:26 2023


#       File generated by GOLD software.
#

@<TRIPOS>MOLECULE
EN300-136798_i002|amine_3|mol2|877|dock13
    30    31     1
SMALL
USER_CHARGES


@<TRIPOS>ATOM
      1 C1          -0.0995 -17.2713  14.9721 C.3            1 <1>                0.0000
      2 O2           0.0329 -16.0902  14.1379 O.3            1 <1>                0.0000
      3 C3          -0.4378 -16.1751  12.8782 C.2            1 <1>                0.0000
      4 O4          -0.9631 -17.2013  12.4937 O.2            1 <1>                0.0000
      5 C5          -0.3155 -15.0235  11.9666 C.2            1 <1>                0.0000
      6 C6           0.4589 -14.9735  10.8416 C.2            1 <1>                0.0000
      7 N7           0.2845 -13.7510  10.3016 N.pl3          1 <1>                0.0000
      8 N8          -0.6151 -13.0657  11.1304 N.2            1 <1>                0.0000
      9 N9          -0.9515 -13.8463  12.0976 N.2            1 <1>                0.0000
     10 C10          0.9142 -13.2367   9.0830 C.3            1 <1>                0.0000
     11 C11          0.4871 -14.0920   7.8867 C.3            1 <1>                0.0000
     12 C12          1.0872 -13.4998   6.6082 C.3            1 <1>                0.0000
     13 C13          0.6401 -12.0431   6.4686 C.3            1 <1>                0.0000
     14 N14          1.1013 -11.2726   7.6297 N.4            1 <1>                1.0000
     15 C15          0.4736 -11.7896   8.8517 C.3            1 <1>                0.0000
     16 H16          0.3180 -17.0682  15.9583 H              1 <1>                0.0000
     17 H17         -1.1538 -17.5304  15.0702 H              1 <1>                0.0000
     18 H18          0.4377 -18.1017  14.5142 H              1 <1>                0.0000
     19 H19          1.0900 -15.7620  10.4591 H              1 <1>                0.0000
     20 H20          1.9983 -13.2752   9.1894 H              1 <1>                0.0000
     21 H21          0.8479 -15.1118   8.0203 H              1 <1>                0.0000
     22 H22         -0.6003 -14.0958   7.8110 H              1 <1>                0.0000
     23 H23          2.1749 -13.5431   6.6626 H              1 <1>                0.0000
     24 H24          0.7423 -14.0706   5.7459 H              1 <1>                0.0000
     25 H25          1.0655 -11.6185   5.5593 H              1 <1>                0.0000
     26 H26         -0.4477 -12.0009   6.4139 H              1 <1>                0.0000
     27 H27         -0.6107 -11.7529   8.7463 H              1 <1>                0.0000
     28 H28          0.7760 -11.1780   9.7017 H              1 <1>                0.0000
     29 H29          2.1040 -11.3523   7.7083 H              1 <1>                0.0000
     30 H30          0.8514 -10.3025   7.5091 H              1 <1>                0.0000
@<TRIPOS>BOND
    1    1    2 1     
    2    1   16 1     
    3    1   17 1     
    4    1   18 1     
    5    2    3 1     
    6    3    4 2     
    7    3    5 1     
    8    5    6 2     
    9    5    9 1     
   10    6    7 1     
   11    6   19 1     
   12    7    8 1     
   13    7   10 1     
   14    8    9 2     
   15   10   11 1     
   16   10   15 1     
   17   10   20 1     
   18   11   12 1     
   19   11   21 1     
   20   11   22 1     
   21   12   13 1     
   22   12   23 1     
   23   12   24 1     
   24   13   14 1     
   25   13   25 1     
   26   13   26 1     
   27   14   15 1     
   28   14   29 1     
   29   14   30 1     
   30   15   27 1     
   31   15   28 1     
@<TRIPOS>SUBSTRUCTURE
      1 ****           1
@<TRIPOS>SET
DONOR_HYDROGENS      STATIC     ATOMS    <user>   **** ""
2 29 30
ATOM$RED        STATIC     ATOMS    COLORGROUP SYSTEM
2 29 30
@<TRIPOS>COMMENT
> <Gold.Version>
2022.2.0

> <Gold.Id.Protein>
3pbl|protein|mol2

> <Gold.Protein.RotatedTorsions>
[ 1303 1298 1297 1294 ] final  124.99 input  179.99 | X-H torsion
[ 2461 2456 2455 2452 ] final   66.74 input   30.03 | X-H torsion
[ 2515 2510 2509 2506 ] final -102.42 input  -89.99 | X-H torsion
[ 3721 3712 3711 3710 ] final   79.73 input -179.91 | X-H torsion
[ 3841 3832 3831 3830 ] final   -2.45 input -179.91 | X-H torsion
[ 3767 3762 3761 3758 ] final   70.99 input  -89.99 | X-H torsion
[ 2472 2467 2466 2463 ] final  107.67 input  -89.97 | X-H torsion

> <Gold.Protein.ActiveResidues>
 VAL82   VAL86   LEU89   PHE106  VAL107  ASP110  VAL111  MET112  CYS114  THR115 
 CYS181  SER182  ILE183  PHE188  VAL189  ILE190  SER192  SER193  SER196  TRP342 
 PHE345  PHE346  HIS349  VAL350  TYR365  THR369  GLY372  TYR373 

> <Gold.Protein.RotatedAtoms>
    4.7826   -9.6995    4.9506 H   0  0  0  0  0  0  0  0  0  0  0  0  # atno 1303 bound_to 1298
    1.9848   -8.0798    7.4516 H   0  0  0  0  0  0  0  0  0  0  0  0  # atno 2461 bound_to 2456
   -5.3112   -5.0068    7.9742 H   0  0  0  0  0  0  0  0  0  0  0  0  # atno 2472 bound_to 2467
    2.7885   -9.0696    4.7573 H   0  0  0  0  0  0  0  0  0  0  0  0  # atno 2515 bound_to 2510
   -2.7113  -17.7301   13.1788 H   0  0  0  0  0  0  0  0  0  0  0  0  # atno 3721 bound_to 3712
   -4.4211  -23.3209   10.2896 H   0  0  0  0  0  0  0  0  0  0  0  0  # atno 3767 bound_to 3762
    1.7162  -20.4586    9.5461 H   0  0  0  0  0  0  0  0  0  0  0  0  # atno 3841 bound_to 3832
    3.4146   -9.9358    4.0910 LP  0  0  0  0  0  0  0  0  0  0  0  0  # atno 4297 bound_to 1298
    4.1647   -8.4859    4.0497 LP  0  0  0  0  0  0  0  0  0  0  0  0  # atno 4298 bound_to 1298
    0.4085   -8.4796    7.3007 LP  0  0  0  0  0  0  0  0  0  0  0  0  # atno 4299 bound_to 2456
    1.3446   -9.2486    8.3957 LP  0  0  0  0  0  0  0  0  0  0  0  0  # atno 4300 bound_to 2456
    2.0897   -8.4485    6.0959 LP  0  0  0  0  0  0  0  0  0  0  0  0  # atno 4301 bound_to 2510
    2.4183   -7.4807    4.8223 LP  0  0  0  0  0  0  0  0  0  0  0  0  # atno 4302 bound_to 2510
   -2.8318  -17.6980   14.7795 LP  0  0  0  0  0  0  0  0  0  0  0  0  # atno 4306 bound_to 3712
   -3.5656  -16.5586   13.8685 LP  0  0  0  0  0  0  0  0  0  0  0  0  # atno 4307 bound_to 3712
    2.1815  -19.6618    8.2328 LP  0  0  0  0  0  0  0  0  0  0  0  0  # atno 4314 bound_to 3832
    3.0654  -20.9106    8.8036 LP  0  0  0  0  0  0  0  0  0  0  0  0  # atno 4315 bound_to 3832
   -5.5015  -22.1537   10.6601 LP  0  0  0  0  0  0  0  0  0  0  0  0  # atno 4318 bound_to 3762
   -4.2046  -22.4007   11.6212 LP  0  0  0  0  0  0  0  0  0  0  0  0  # atno 4319 bound_to 3762
   -3.7029   -4.9265    8.2447 LP  0  0  0  0  0  0  0  0  0  0  0  0  # atno 4320 bound_to 2467
   -4.7030   -5.4602    9.4202 LP  0  0  0  0  0  0  0  0  0  0  0  0  # atno 4321 bound_to 2467

> <Gold.Score>
     Score     S(PLP)   S(hbond)     S(cho)   S(metal)  DE(clash)   DE(tors)     intcor
     43.94     -38.07       1.81       1.00       0.00       0.00       1.28       0.00

> <Gold.PLP.Fitness>
43.9438

> <Gold.PLP.PLP>
-38.0701

> <Gold.PLP.part.hbond>
-2.4721

> <Gold.PLP.part.metal>
0.0000

> <Gold.PLP.part.buried>
-5.6097

> <Gold.PLP.part.nonpolar>
-30.5660

> <Gold.PLP.part.repulsive>
0.2371

> <Gold.PLP.ligand.clash>
0.0000

> <Gold.PLP.ligand.torsion>
1.2753

> <Gold.PLP.Chemscore.Hbond>
1.8080

> <Gold.PLP.Chemscore.CHOScore>
1.0000

> <Gold.PLP.Chemscore.Metal>
0.0000

> <Gold.Chemscore.Hbonds>
donor molecule, donor type, donor heavy atom, donor atom, acceptor molecule, acceptor atom, score
      L1  H    14    30       P1  2456  0.99
      P1  H  3712  3721       L1     4  0.82
      L1  C     6    19       P1  1227  1.00

> <Gold.PLP.Chemscore.Internal.Correction>
0.0002

