#       Name:                EN300-136798_i002
#       Creating user name   fsindt
#       Creation time:       Mon Feb 27 21:37:22 2023


#       File generated by GOLD software.
#

@<TRIPOS>MOLECULE
EN300-136798_i002|amine_3|mol2|877|dock8
    30    31     1
SMALL
USER_CHARGES


@<TRIPOS>ATOM
      1 C1           1.4418 -12.2956   6.3014 C.3            1 <1>                0.0000
      2 O2           1.1426 -13.1118   7.4645 O.3            1 <1>                0.0000
      3 C3           0.6598 -12.4762   8.5502 C.2            1 <1>                0.0000
      4 O4           0.5192 -11.2692   8.5351 O.2            1 <1>                0.0000
      5 C5           0.3022 -13.2447   9.7558 C.2            1 <1>                0.0000
      6 C6           0.8876 -14.4106  10.1630 C.2            1 <1>                0.0000
      7 N7           0.2713 -14.7793  11.3036 N.pl3          1 <1>                0.0000
      8 N8          -0.7005 -13.8052  11.5731 N.2            1 <1>                0.0000
      9 N9          -0.6510 -12.9146  10.6445 N.2            1 <1>                0.0000
     10 C10          0.5609 -15.9693  12.1073 C.3            1 <1>                0.0000
     11 C11          2.0242 -15.9383  12.5580 C.3            1 <1>                0.0000
     12 C12          2.2956 -17.1448  13.4613 C.3            1 <1>                0.0000
     13 C13          1.3242 -17.1188  14.6433 C.3            1 <1>                0.0000
     14 N14         -0.0563 -17.1772  14.1481 N.4            1 <1>                1.0000
     15 C15         -0.3462 -15.9869  13.3396 C.3            1 <1>                0.0000
     16 H16          1.8220 -12.9299   5.5006 H              1 <1>                0.0000
     17 H17          0.5341 -11.7931   5.9671 H              1 <1>                0.0000
     18 H18          2.1937 -11.5513   6.5635 H              1 <1>                0.0000
     19 H19          1.6896 -14.9361   9.6660 H              1 <1>                0.0000
     20 H20          0.3827 -16.8638  11.5106 H              1 <1>                0.0000
     21 H21          2.6755 -15.9828  11.6850 H              1 <1>                0.0000
     22 H22          2.2160 -15.0187  13.1108 H              1 <1>                0.0000
     23 H23          2.1532 -18.0642  12.8933 H              1 <1>                0.0000
     24 H24          3.3200 -17.0997  13.8310 H              1 <1>                0.0000
     25 H25          1.5148 -17.9764  15.2886 H              1 <1>                0.0000
     26 H26          1.4676 -16.1993  15.2108 H              1 <1>                0.0000
     27 H27         -0.1672 -15.0915  13.9347 H              1 <1>                0.0000
     28 H28         -1.3887 -16.0088  13.0223 H              1 <1>                0.0000
     29 H29         -0.1749 -18.0040  13.5821 H              1 <1>                0.0000
     30 H30         -0.6921 -17.2138  14.9308 H              1 <1>                0.0000
@<TRIPOS>BOND
    1    1    2 1     
    2    1   16 1     
    3    1   17 1     
    4    1   18 1     
    5    2    3 1     
    6    3    4 2     
    7    3    5 1     
    8    5    6 2     
    9    5    9 1     
   10    6    7 1     
   11    6   19 1     
   12    7    8 1     
   13    7   10 1     
   14    8    9 2     
   15   10   11 1     
   16   10   15 1     
   17   10   20 1     
   18   11   12 1     
   19   11   21 1     
   20   11   22 1     
   21   12   13 1     
   22   12   23 1     
   23   12   24 1     
   24   13   14 1     
   25   13   25 1     
   26   13   26 1     
   27   14   15 1     
   28   14   29 1     
   29   14   30 1     
   30   15   27 1     
   31   15   28 1     
@<TRIPOS>SUBSTRUCTURE
      1 ****           1
@<TRIPOS>SET
DONOR_HYDROGENS      STATIC     ATOMS    <user>   **** ""
2 29 30
ATOM$RED        STATIC     ATOMS    COLORGROUP SYSTEM
2 29 30
@<TRIPOS>COMMENT
> <Gold.Version>
2022.2.0

> <Gold.Id.Protein>
3pbl|protein|mol2

> <Gold.Protein.RotatedTorsions>
[ 1303 1298 1297 1294 ] final   49.97 input  179.99 | X-H torsion
[ 2461 2456 2455 2452 ] final -161.76 input   30.03 | X-H torsion
[ 2515 2510 2509 2506 ] final   94.16 input  -89.99 | X-H torsion
[ 3721 3712 3711 3710 ] final   21.76 input -179.91 | X-H torsion
[ 3841 3832 3831 3830 ] final  149.83 input -179.91 | X-H torsion
[ 3767 3762 3761 3758 ] final   52.76 input  -89.99 | X-H torsion
[ 2472 2467 2466 2463 ] final  155.85 input  -89.97 | X-H torsion

> <Gold.Protein.ActiveResidues>
 VAL82   VAL86   LEU89   PHE106  VAL107  ASP110  VAL111  MET112  CYS114  THR115 
 CYS181  SER182  ILE183  PHE188  VAL189  ILE190  SER192  SER193  SER196  TRP342 
 PHE345  PHE346  HIS349  VAL350  TYR365  THR369  GLY372  TYR373 

> <Gold.Protein.RotatedAtoms>
    3.8734  -10.2664    4.5388 H   0  0  0  0  0  0  0  0  0  0  0  0  # atno 1303 bound_to 1298
    1.1613   -9.2818    8.3649 H   0  0  0  0  0  0  0  0  0  0  0  0  # atno 2461 bound_to 2456
   -5.4953   -5.2780    8.6706 H   0  0  0  0  0  0  0  0  0  0  0  0  # atno 2472 bound_to 2467
    2.0369   -7.7865    5.8833 H   0  0  0  0  0  0  0  0  0  0  0  0  # atno 2515 bound_to 2510
   -2.4720  -18.0320   13.9246 H   0  0  0  0  0  0  0  0  0  0  0  0  # atno 3721 bound_to 3712
   -4.6697  -23.2414   10.1445 H   0  0  0  0  0  0  0  0  0  0  0  0  # atno 3767 bound_to 3762
    3.1239  -20.4079    8.6290 H   0  0  0  0  0  0  0  0  0  0  0  0  # atno 3841 bound_to 3832
    3.5935   -8.8420    3.7909 LP  0  0  0  0  0  0  0  0  0  0  0  0  # atno 4297 bound_to 1298
    4.8954   -9.0126    4.7618 LP  0  0  0  0  0  0  0  0  0  0  0  0  # atno 4298 bound_to 1298
    2.0775   -8.1789    7.5830 LP  0  0  0  0  0  0  0  0  0  0  0  0  # atno 4299 bound_to 2456
    0.4990   -8.3476    7.2004 LP  0  0  0  0  0  0  0  0  0  0  0  0  # atno 4300 bound_to 2456
    2.6994   -7.9606    4.4012 LP  0  0  0  0  0  0  0  0  0  0  0  0  # atno 4301 bound_to 2510
    2.5606   -9.2523    5.3905 LP  0  0  0  0  0  0  0  0  0  0  0  0  # atno 4302 bound_to 2510
   -3.2965  -16.8981   14.7070 LP  0  0  0  0  0  0  0  0  0  0  0  0  # atno 4306 bound_to 3712
   -3.3772  -17.0099   13.0799 LP  0  0  0  0  0  0  0  0  0  0  0  0  # atno 4307 bound_to 3712
    1.9247  -20.9517    9.5467 LP  0  0  0  0  0  0  0  0  0  0  0  0  # atno 4314 bound_to 3832
    1.6960  -19.6793    8.5491 LP  0  0  0  0  0  0  0  0  0  0  0  0  # atno 4315 bound_to 3832
   -5.4226  -22.0111   10.9102 LP  0  0  0  0  0  0  0  0  0  0  0  0  # atno 4318 bound_to 3762
   -4.0350  -22.6227   11.5161 LP  0  0  0  0  0  0  0  0  0  0  0  0  # atno 4319 bound_to 3762
   -4.2545   -4.7993    7.7232 LP  0  0  0  0  0  0  0  0  0  0  0  0  # atno 4320 bound_to 2467
   -3.9673   -5.3163    9.2453 LP  0  0  0  0  0  0  0  0  0  0  0  0  # atno 4321 bound_to 2467

> <Gold.Score>
     Score     S(PLP)   S(hbond)     S(cho)   S(metal)  DE(clash)   DE(tors)     intcor
     46.26     -42.59       1.00       0.48       0.00       0.00       0.38       0.00

> <Gold.PLP.Fitness>
46.2592

> <Gold.PLP.PLP>
-42.5940

> <Gold.PLP.part.hbond>
-1.3114

> <Gold.PLP.part.metal>
0.0000

> <Gold.PLP.part.buried>
-7.4068

> <Gold.PLP.part.nonpolar>
-34.7799

> <Gold.PLP.part.repulsive>
0.1851

> <Gold.PLP.ligand.clash>
0.0000

> <Gold.PLP.ligand.torsion>
0.3802

> <Gold.PLP.Chemscore.Hbond>
1.0000

> <Gold.PLP.Chemscore.CHOScore>
0.4751

> <Gold.PLP.Chemscore.Metal>
0.0000

> <Gold.Chemscore.Hbonds>
donor molecule, donor type, donor heavy atom, donor atom, acceptor molecule, acceptor atom, score
      P1  H  2456  2461       L1     4  1.00
      L1  C     6    19       P1  1227  0.48

> <Gold.PLP.Chemscore.Internal.Correction>
0.0002

