#       Name:                EN300-136798_i002
#       Creating user name   fsindt
#       Creation time:       Mon Feb 27 21:37:18 2023


#       File generated by GOLD software.
#

@<TRIPOS>MOLECULE
EN300-136798_i002|amine_3|mol2|877|dock2
    30    31     1
SMALL
USER_CHARGES


@<TRIPOS>ATOM
      1 C1           1.8021 -17.6357  14.6969 C.3            1 <1>                0.0000
      2 O2           1.4512 -16.8774  13.5093 O.3            1 <1>                0.0000
      3 C3           0.4744 -15.9580  13.6369 C.2            1 <1>                0.0000
      4 O4          -0.1067 -15.8321  14.6967 O.2            1 <1>                0.0000
      5 C5           0.1108 -15.1052  12.4912 C.2            1 <1>                0.0000
      6 C6           0.5448 -15.2666  11.2054 C.2            1 <1>                0.0000
      7 N7          -0.0194 -14.2833  10.4765 N.pl3          1 <1>                0.0000
      8 N8          -0.8048 -13.5252  11.3566 N.2            1 <1>                0.0000
      9 N9          -0.7087 -14.0403  12.5328 N.2            1 <1>                0.0000
     10 C10          0.1546 -14.0508   9.0407 C.3            1 <1>                0.0000
     11 C11          0.0403 -12.5520   8.7478 C.3            1 <1>                0.0000
     12 C12          0.3013 -12.3116   7.2581 C.3            1 <1>                0.0000
     13 C13          1.6773 -12.8710   6.8901 C.3            1 <1>                0.0000
     14 N14          1.7140 -14.3117   7.1686 N.4            1 <1>                1.0000
     15 C15          1.5360 -14.5458   8.6067 C.3            1 <1>                0.0000
     16 H16          2.5995 -18.3389  14.4565 H              1 <1>                0.0000
     17 H17          2.1419 -16.9536  15.4763 H              1 <1>                0.0000
     18 H18          0.9284 -18.1838  15.0493 H              1 <1>                0.0000
     19 H19          1.2123 -16.0343  10.8429 H              1 <1>                0.0000
     20 H20         -0.6157 -14.5893   8.4887 H              1 <1>                0.0000
     21 H21         -0.9614 -12.2061   9.0028 H              1 <1>                0.0000
     22 H22          0.7767 -12.0078   9.3393 H              1 <1>                0.0000
     23 H23         -0.4654 -12.8140   6.6684 H              1 <1>                0.0000
     24 H24          0.2766 -11.2414   7.0522 H              1 <1>                0.0000
     25 H25          1.8663 -12.7014   5.8301 H              1 <1>                0.0000
     26 H26          2.4433 -12.3677   7.4800 H              1 <1>                0.0000
     27 H27          2.3050 -14.0068   9.1600 H              1 <1>                0.0000
     28 H28          1.6208 -15.6125   8.8139 H              1 <1>                0.0000
     29 H29          0.9733 -14.7706   6.6599 H              1 <1>                0.0000
     30 H30          2.6035 -14.6873   6.8753 H              1 <1>                0.0000
@<TRIPOS>BOND
    1    1    2 1     
    2    1   16 1     
    3    1   17 1     
    4    1   18 1     
    5    2    3 1     
    6    3    4 2     
    7    3    5 1     
    8    5    6 2     
    9    5    9 1     
   10    6    7 1     
   11    6   19 1     
   12    7    8 1     
   13    7   10 1     
   14    8    9 2     
   15   10   11 1     
   16   10   15 1     
   17   10   20 1     
   18   11   12 1     
   19   11   21 1     
   20   11   22 1     
   21   12   13 1     
   22   12   23 1     
   23   12   24 1     
   24   13   14 1     
   25   13   25 1     
   26   13   26 1     
   27   14   15 1     
   28   14   29 1     
   29   14   30 1     
   30   15   27 1     
   31   15   28 1     
@<TRIPOS>SUBSTRUCTURE
      1 ****           1
@<TRIPOS>SET
DONOR_HYDROGENS      STATIC     ATOMS    <user>   **** ""
2 29 30
ATOM$RED        STATIC     ATOMS    COLORGROUP SYSTEM
2 29 30
@<TRIPOS>COMMENT
> <Gold.Version>
2022.2.0

> <Gold.Id.Protein>
3pbl|protein|mol2

> <Gold.Protein.RotatedTorsions>
[ 1303 1298 1297 1294 ] final -144.22 input  179.99 | X-H torsion
[ 2461 2456 2455 2452 ] final -141.27 input   30.03 | X-H torsion
[ 2515 2510 2509 2506 ] final  -94.98 input  -89.99 | X-H torsion
[ 3721 3712 3711 3710 ] final  -96.61 input -179.91 | X-H torsion
[ 3841 3832 3831 3830 ] final   -5.00 input -179.91 | X-H torsion
[ 3767 3762 3761 3758 ] final -179.24 input  -89.99 | X-H torsion
[ 2472 2467 2466 2463 ] final  179.79 input  -89.97 | X-H torsion

> <Gold.Protein.ActiveResidues>
 VAL82   VAL86   LEU89   PHE106  VAL107  ASP110  VAL111  MET112  CYS114  THR115 
 CYS181  SER182  ILE183  PHE188  VAL189  ILE190  SER192  SER193  SER196  TRP342 
 PHE345  PHE346  HIS349  VAL350  TYR365  THR369  GLY372  TYR373 

> <Gold.Protein.RotatedAtoms>
    4.5444   -8.5323    4.3322 H   0  0  0  0  0  0  0  0  0  0  0  0  # atno 1303 bound_to 1298
    0.8475   -9.2730    8.2466 H   0  0  0  0  0  0  0  0  0  0  0  0  # atno 2461 bound_to 2456
   -5.3486   -5.3866    9.0165 H   0  0  0  0  0  0  0  0  0  0  0  0  # atno 2472 bound_to 2467
    2.8101   -8.9909    4.6660 H   0  0  0  0  0  0  0  0  0  0  0  0  # atno 2515 bound_to 2510
   -3.0721  -16.8737   14.6397 H   0  0  0  0  0  0  0  0  0  0  0  0  # atno 3721 bound_to 3712
   -4.1015  -22.5233   11.5709 H   0  0  0  0  0  0  0  0  0  0  0  0  # atno 3767 bound_to 3762
    1.6959  -20.4290    9.5321 H   0  0  0  0  0  0  0  0  0  0  0  0  # atno 3841 bound_to 3832
    4.4874  -10.0669    4.8874 LP  0  0  0  0  0  0  0  0  0  0  0  0  # atno 4297 bound_to 1298
    3.3302   -9.5224    3.8720 LP  0  0  0  0  0  0  0  0  0  0  0  0  # atno 4298 bound_to 1298
    2.1588   -8.3945    7.8267 LP  0  0  0  0  0  0  0  0  0  0  0  0  # atno 4299 bound_to 2456
    0.7314   -8.1409    7.0751 LP  0  0  0  0  0  0  0  0  0  0  0  0  # atno 4300 bound_to 2456
    2.1203   -8.5665    6.0836 LP  0  0  0  0  0  0  0  0  0  0  0  0  # atno 4301 bound_to 2510
    2.3661   -7.4414    4.9259 LP  0  0  0  0  0  0  0  0  0  0  0  0  # atno 4302 bound_to 2510
   -3.3682  -17.0272   13.0692 LP  0  0  0  0  0  0  0  0  0  0  0  0  # atno 4306 bound_to 3712
   -2.6126  -18.2182   13.8921 LP  0  0  0  0  0  0  0  0  0  0  0  0  # atno 4307 bound_to 3712
    2.2201  -19.6716    8.2176 LP  0  0  0  0  0  0  0  0  0  0  0  0  # atno 4314 bound_to 3832
    3.0502  -20.9351    8.8350 LP  0  0  0  0  0  0  0  0  0  0  0  0  # atno 4315 bound_to 3832
   -4.5590  -23.2849   10.2007 LP  0  0  0  0  0  0  0  0  0  0  0  0  # atno 4318 bound_to 3762
   -5.4667  -22.0668   10.7998 LP  0  0  0  0  0  0  0  0  0  0  0  0  # atno 4319 bound_to 3762
   -4.6398   -4.8187    7.6595 LP  0  0  0  0  0  0  0  0  0  0  0  0  # atno 4320 bound_to 2467
   -3.7286   -5.1883    8.9632 LP  0  0  0  0  0  0  0  0  0  0  0  0  # atno 4321 bound_to 2467

> <Gold.Score>
     Score     S(PLP)   S(hbond)     S(cho)   S(metal)  DE(clash)   DE(tors)     intcor
     46.52     -39.20       1.98       1.00       0.00       0.00       0.80       0.00

> <Gold.PLP.Fitness>
46.5205

> <Gold.PLP.PLP>
-39.1964

> <Gold.PLP.part.hbond>
-2.5735

> <Gold.PLP.part.metal>
0.0000

> <Gold.PLP.part.buried>
-5.2266

> <Gold.PLP.part.nonpolar>
-33.2910

> <Gold.PLP.part.repulsive>
0.3556

> <Gold.PLP.ligand.clash>
0.0000

> <Gold.PLP.ligand.torsion>
0.8006

> <Gold.PLP.Chemscore.Hbond>
1.9750

> <Gold.PLP.Chemscore.CHOScore>
1.0000

> <Gold.PLP.Chemscore.Metal>
0.0000

> <Gold.Chemscore.Hbonds>
donor molecule, donor type, donor heavy atom, donor atom, acceptor molecule, acceptor atom, score
      L1  H    14    30       P1  1223  0.98
      P1  H  2305  2313       L1     4  1.00
      L1  C     6    19       P1  1227  1.00

> <Gold.PLP.Chemscore.Internal.Correction>
0.0002

