#       Name:                EN300-136798_i002
#       Creating user name   fsindt
#       Creation time:       Mon Feb 27 21:37:26 2023


#       File generated by GOLD software.
#

@<TRIPOS>MOLECULE
EN300-136798_i002|amine_3|mol2|877|dock14
    30    31     1
SMALL
USER_CHARGES


@<TRIPOS>ATOM
      1 C1          -0.1497 -24.5429  14.6944 C.3            1 <1>                0.0000
      2 O2          -0.1678 -23.3353  13.8885 O.3            1 <1>                0.0000
      3 C3          -0.7296 -22.2410  14.4386 C.2            1 <1>                0.0000
      4 O4          -1.2035 -22.2980  15.5562 O.2            1 <1>                0.0000
      5 C5          -0.7694 -20.9750  13.6850 C.2            1 <1>                0.0000
      6 C6          -0.2674 -20.7764  12.4295 C.2            1 <1>                0.0000
      7 N7          -0.5092 -19.4891  12.1116 N.pl3          1 <1>                0.0000
      8 N8          -1.1699 -18.9173  13.2082 N.2            1 <1>                0.0000
      9 N9          -1.3108 -19.8216  14.1139 N.2            1 <1>                0.0000
     10 C10         -0.1502 -18.8163  10.8608 C.3            1 <1>                0.0000
     11 C11         -1.0129 -19.3637   9.7199 C.3            1 <1>                0.0000
     12 C12         -0.6853 -18.5999   8.4337 C.3            1 <1>                0.0000
     13 C13         -0.9099 -17.1039   8.6640 C.3            1 <1>                0.0000
     14 N14         -0.0380 -16.6359   9.7482 N.4            1 <1>                1.0000
     15 C15         -0.3946 -17.3122  11.0012 C.3            1 <1>                0.0000
     16 H16          0.3292 -25.3462  14.1344 H              1 <1>                0.0000
     17 H17          0.4071 -24.3583  15.6131 H              1 <1>                0.0000
     18 H18         -1.1717 -24.8309  14.9405 H              1 <1>                0.0000
     19 H19          0.2284 -21.5098  11.8110 H              1 <1>                0.0000
     20 H20          0.9019 -18.9957  10.6398 H              1 <1>                0.0000
     21 H21         -0.8007 -20.4234   9.5786 H              1 <1>                0.0000
     22 H22         -2.0669 -19.2312   9.9641 H              1 <1>                0.0000
     23 H23          0.3558 -18.7741   8.1619 H              1 <1>                0.0000
     24 H24         -1.3348 -18.9458   7.6294 H              1 <1>                0.0000
     25 H25         -0.6777 -16.5571   7.7501 H              1 <1>                0.0000
     26 H26         -1.9512 -16.9307   8.9354 H              1 <1>                0.0000
     27 H27         -1.4469 -17.1347  11.2227 H              1 <1>                0.0000
     28 H28          0.2179 -16.9194  11.8126 H              1 <1>                0.0000
     29 H29          0.9227 -16.8408   9.5181 H              1 <1>                0.0000
     30 H30         -0.1494 -15.6394   9.8616 H              1 <1>                0.0000
@<TRIPOS>BOND
    1    1    2 1     
    2    1   16 1     
    3    1   17 1     
    4    1   18 1     
    5    2    3 1     
    6    3    4 2     
    7    3    5 1     
    8    5    6 2     
    9    5    9 1     
   10    6    7 1     
   11    6   19 1     
   12    7    8 1     
   13    7   10 1     
   14    8    9 2     
   15   10   11 1     
   16   10   15 1     
   17   10   20 1     
   18   11   12 1     
   19   11   21 1     
   20   11   22 1     
   21   12   13 1     
   22   12   23 1     
   23   12   24 1     
   24   13   14 1     
   25   13   25 1     
   26   13   26 1     
   27   14   15 1     
   28   14   29 1     
   29   14   30 1     
   30   15   27 1     
   31   15   28 1     
@<TRIPOS>SUBSTRUCTURE
      1 ****           1
@<TRIPOS>SET
DONOR_HYDROGENS      STATIC     ATOMS    <user>   **** ""
2 29 30
ATOM$RED        STATIC     ATOMS    COLORGROUP SYSTEM
2 29 30
@<TRIPOS>COMMENT
> <Gold.Version>
2022.2.0

> <Gold.Id.Protein>
3pbl|protein|mol2

> <Gold.Protein.RotatedTorsions>
[ 1303 1298 1297 1294 ] final   71.42 input  179.99 | X-H torsion
[ 2461 2456 2455 2452 ] final  -43.85 input   30.03 | X-H torsion
[ 2515 2510 2509 2506 ] final  -18.35 input  -89.99 | X-H torsion
[ 3721 3712 3711 3710 ] final   51.34 input -179.91 | X-H torsion
[ 3841 3832 3831 3830 ] final  133.89 input -179.91 | X-H torsion
[ 3767 3762 3761 3758 ] final -122.06 input  -89.99 | X-H torsion
[ 2472 2467 2466 2463 ] final -121.04 input  -89.97 | X-H torsion

> <Gold.Protein.ActiveResidues>
 VAL82   VAL86   LEU89   PHE106  VAL107  ASP110  VAL111  MET112  CYS114  THR115 
 CYS181  SER182  ILE183  PHE188  VAL189  ILE190  SER192  SER193  SER196  TRP342 
 PHE345  PHE346  HIS349  VAL350  TYR365  THR369  GLY372  TYR373 

> <Gold.Protein.RotatedAtoms>
    4.1653  -10.2405    4.7316 H   0  0  0  0  0  0  0  0  0  0  0  0  # atno 1303 bound_to 1298
    0.4800   -8.3709    7.2171 H   0  0  0  0  0  0  0  0  0  0  0  0  # atno 2461 bound_to 2456
   -4.5184   -5.4455    9.4336 H   0  0  0  0  0  0  0  0  0  0  0  0  # atno 2472 bound_to 2467
    2.6578   -7.8535    4.4457 H   0  0  0  0  0  0  0  0  0  0  0  0  # atno 2515 bound_to 2510
   -2.5495  -17.9636   13.4946 H   0  0  0  0  0  0  0  0  0  0  0  0  # atno 3721 bound_to 3712
   -4.8201  -21.9786   11.5346 H   0  0  0  0  0  0  0  0  0  0  0  0  # atno 3767 bound_to 3762
    3.1273  -20.5877    8.7879 H   0  0  0  0  0  0  0  0  0  0  0  0  # atno 3841 bound_to 3832
    3.4143   -9.1437    3.7834 LP  0  0  0  0  0  0  0  0  0  0  0  0  # atno 4297 bound_to 1298
    4.7826   -8.7368    4.5764 LP  0  0  0  0  0  0  0  0  0  0  0  0  # atno 4298 bound_to 1298
    1.1945   -9.2776    8.3723 LP  0  0  0  0  0  0  0  0  0  0  0  0  # atno 4299 bound_to 2456
    2.0630   -8.1596    7.5586 LP  0  0  0  0  0  0  0  0  0  0  0  0  # atno 4300 bound_to 2456
    2.6094   -9.2576    5.2776 LP  0  0  0  0  0  0  0  0  0  0  0  0  # atno 4301 bound_to 2510
    2.0295   -7.8882    5.9523 LP  0  0  0  0  0  0  0  0  0  0  0  0  # atno 4302 bound_to 2510
   -3.0559  -17.2939   14.8632 LP  0  0  0  0  0  0  0  0  0  0  0  0  # atno 4306 bound_to 3712
   -3.5284  -16.6932   13.4201 LP  0  0  0  0  0  0  0  0  0  0  0  0  # atno 4307 bound_to 3712
    1.7172  -20.7873    9.5280 LP  0  0  0  0  0  0  0  0  0  0  0  0  # atno 4314 bound_to 3832
    1.8996  -19.6360    8.3843 LP  0  0  0  0  0  0  0  0  0  0  0  0  # atno 4315 bound_to 3832
   -3.9657  -23.2045   10.8757 LP  0  0  0  0  0  0  0  0  0  0  0  0  # atno 4318 bound_to 3762
   -5.3416  -22.6917   10.1611 LP  0  0  0  0  0  0  0  0  0  0  0  0  # atno 4319 bound_to 3762
   -5.4100   -5.0689    8.1185 LP  0  0  0  0  0  0  0  0  0  0  0  0  # atno 4320 bound_to 2467
   -3.7884   -4.8792    8.0872 LP  0  0  0  0  0  0  0  0  0  0  0  0  # atno 4321 bound_to 2467

> <Gold.Score>
     Score     S(PLP)   S(hbond)     S(cho)   S(metal)  DE(clash)   DE(tors)     intcor
     41.91     -33.25       3.00       0.00       0.00       0.00       0.17       0.00

> <Gold.PLP.Fitness>
41.9070

> <Gold.PLP.PLP>
-33.2482

> <Gold.PLP.part.hbond>
-3.0000

> <Gold.PLP.part.metal>
0.0000

> <Gold.PLP.part.buried>
-4.0165

> <Gold.PLP.part.nonpolar>
-26.2932

> <Gold.PLP.part.repulsive>
0.0385

> <Gold.PLP.ligand.clash>
0.0000

> <Gold.PLP.ligand.torsion>
0.1707

> <Gold.PLP.Chemscore.Hbond>
3.0000

> <Gold.PLP.Chemscore.CHOScore>
0.0000

> <Gold.PLP.Chemscore.Metal>
0.0000

> <Gold.Chemscore.Hbonds>
donor molecule, donor type, donor heavy atom, donor atom, acceptor molecule, acceptor atom, score
      L1  H    14    29       P1  1227  2.00
      P1  H  3712  3721       L1     8  1.00

> <Gold.PLP.Chemscore.Internal.Correction>
0.0002

