#       Name:                EN300-136798_i002
#       Creating user name   fsindt
#       Creation time:       Mon Feb 27 21:37:28 2023


#       File generated by GOLD software.
#

@<TRIPOS>MOLECULE
EN300-136798_i002|amine_3|mol2|877|dock17
    30    31     1
SMALL
USER_CHARGES


@<TRIPOS>ATOM
      1 C1           2.4320 -17.7346  13.5933 C.3            1 <1>                0.0000
      2 O2           2.1637 -16.4371  12.9992 O.3            1 <1>                0.0000
      3 C3           0.9898 -15.8530  13.3099 C.2            1 <1>                0.0000
      4 O4           0.4714 -16.0667  14.3880 O.2            1 <1>                0.0000
      5 C5           0.3346 -14.9550  12.3422 C.2            1 <1>                0.0000
      6 C6           0.6741 -14.8143  11.0259 C.2            1 <1>                0.0000
      7 N7          -0.1673 -13.9016  10.5011 N.pl3          1 <1>                0.0000
      8 N8          -1.0227 -13.4961  11.5353 N.2            1 <1>                0.0000
      9 N9          -0.7021 -14.1399  12.6033 N.2            1 <1>                0.0000
     10 C10         -0.1847 -13.4245   9.1161 C.3            1 <1>                0.0000
     11 C11          1.0998 -12.6417   8.8288 C.3            1 <1>                0.0000
     12 C12          1.1077 -12.2150   7.3581 C.3            1 <1>                0.0000
     13 C13          0.9741 -13.4553   6.4720 C.3            1 <1>                0.0000
     14 N14         -0.2855 -14.1448   6.7761 N.4            1 <1>                1.0000
     15 C15         -0.2705 -14.6201   8.1648 C.3            1 <1>                0.0000
     16 H16          3.4072 -18.0913  13.2618 H              1 <1>                0.0000
     17 H17          2.4281 -17.6446  14.6797 H              1 <1>                0.0000
     18 H18          1.6623 -18.4418  13.2845 H              1 <1>                0.0000
     19 H19          1.4653 -15.3342  10.5061 H              1 <1>                0.0000
     20 H20         -1.0476 -12.7759   8.9653 H              1 <1>                0.0000
     21 H21          1.1380 -11.7576   9.4651 H              1 <1>                0.0000
     22 H22          1.9647 -13.2742   9.0294 H              1 <1>                0.0000
     23 H23          0.2716 -11.5415   7.1699 H              1 <1>                0.0000
     24 H24          2.0444 -11.7053   7.1319 H              1 <1>                0.0000
     25 H25          0.9795 -13.1550   5.4241 H              1 <1>                0.0000
     26 H26          1.8107 -14.1280   6.6606 H              1 <1>                0.0000
     27 H27          0.5927 -15.2679   8.3174 H              1 <1>                0.0000
     28 H28         -1.1838 -15.1796   8.3668 H              1 <1>                0.0000
     29 H29         -1.0565 -13.5067   6.6484 H              1 <1>                0.0000
     30 H30         -0.3960 -14.9314   6.1538 H              1 <1>                0.0000
@<TRIPOS>BOND
    1    1    2 1     
    2    1   16 1     
    3    1   17 1     
    4    1   18 1     
    5    2    3 1     
    6    3    4 2     
    7    3    5 1     
    8    5    6 2     
    9    5    9 1     
   10    6    7 1     
   11    6   19 1     
   12    7    8 1     
   13    7   10 1     
   14    8    9 2     
   15   10   11 1     
   16   10   15 1     
   17   10   20 1     
   18   11   12 1     
   19   11   21 1     
   20   11   22 1     
   21   12   13 1     
   22   12   23 1     
   23   12   24 1     
   24   13   14 1     
   25   13   25 1     
   26   13   26 1     
   27   14   15 1     
   28   14   29 1     
   29   14   30 1     
   30   15   27 1     
   31   15   28 1     
@<TRIPOS>SUBSTRUCTURE
      1 ****           1
@<TRIPOS>SET
DONOR_HYDROGENS      STATIC     ATOMS    <user>   **** ""
2 29 30
ATOM$RED        STATIC     ATOMS    COLORGROUP SYSTEM
2 29 30
@<TRIPOS>COMMENT
> <Gold.Version>
2022.2.0

> <Gold.Id.Protein>
3pbl|protein|mol2

> <Gold.Protein.RotatedTorsions>
[ 1303 1298 1297 1294 ] final   48.21 input  179.99 | X-H torsion
[ 2461 2456 2455 2452 ] final -119.14 input   30.03 | X-H torsion
[ 2515 2510 2509 2506 ] final  -65.69 input  -89.99 | X-H torsion
[ 3721 3712 3711 3710 ] final -143.30 input -179.91 | X-H torsion
[ 3841 3832 3831 3830 ] final  -77.72 input -179.91 | X-H torsion
[ 3767 3762 3761 3758 ] final -128.22 input  -89.99 | X-H torsion
[ 2472 2467 2466 2463 ] final   99.51 input  -89.97 | X-H torsion

> <Gold.Protein.ActiveResidues>
 VAL82   VAL86   LEU89   PHE106  VAL107  ASP110  VAL111  MET112  CYS114  THR115 
 CYS181  SER182  ILE183  PHE188  VAL189  ILE190  SER192  SER193  SER196  TRP342 
 PHE345  PHE346  HIS349  VAL350  TYR365  THR369  GLY372  TYR373 

> <Gold.Protein.RotatedAtoms>
    3.8505  -10.2629    4.5215 H   0  0  0  0  0  0  0  0  0  0  0  0  # atno 1303 bound_to 1298
    0.5664   -9.1684    8.0440 H   0  0  0  0  0  0  0  0  0  0  0  0  # atno 2461 bound_to 2456
   -5.2218   -4.9643    7.8837 H   0  0  0  0  0  0  0  0  0  0  0  0  # atno 2472 bound_to 2467
    2.8312   -8.5893    4.4106 H   0  0  0  0  0  0  0  0  0  0  0  0  # atno 2515 bound_to 2510
   -3.3111  -16.5422   14.0880 H   0  0  0  0  0  0  0  0  0  0  0  0  # atno 3721 bound_to 3712
   -4.7343  -22.0141   11.5749 H   0  0  0  0  0  0  0  0  0  0  0  0  # atno 3767 bound_to 3762
    1.7337  -19.6765    8.8349 H   0  0  0  0  0  0  0  0  0  0  0  0  # atno 3841 bound_to 3832
    3.6118   -8.8201    3.7951 LP  0  0  0  0  0  0  0  0  0  0  0  0  # atno 4297 bound_to 1298
    4.9000   -9.0379    4.7748 LP  0  0  0  0  0  0  0  0  0  0  0  0  # atno 4298 bound_to 1298
    2.1168   -8.6560    8.0732 LP  0  0  0  0  0  0  0  0  0  0  0  0  # atno 4299 bound_to 2456
    1.0544   -7.9839    7.0310 LP  0  0  0  0  0  0  0  0  0  0  0  0  # atno 4300 bound_to 2456
    2.2855   -8.9743    5.9005 LP  0  0  0  0  0  0  0  0  0  0  0  0  # atno 4301 bound_to 2510
    2.1798   -7.4354    5.3645 LP  0  0  0  0  0  0  0  0  0  0  0  0  # atno 4302 bound_to 2510
   -2.9966  -17.6857   13.0057 LP  0  0  0  0  0  0  0  0  0  0  0  0  # atno 4306 bound_to 3712
   -2.7084  -17.9423   14.5925 LP  0  0  0  0  0  0  0  0  0  0  0  0  # atno 4307 bound_to 3712
    3.0767  -20.4057    8.3446 LP  0  0  0  0  0  0  0  0  0  0  0  0  # atno 4314 bound_to 3832
    2.1499  -21.0702    9.5134 LP  0  0  0  0  0  0  0  0  0  0  0  0  # atno 4315 bound_to 3832
   -4.0022  -23.2453   10.7905 LP  0  0  0  0  0  0  0  0  0  0  0  0  # atno 4318 bound_to 3762
   -5.3909  -22.6155   10.2059 LP  0  0  0  0  0  0  0  0  0  0  0  0  # atno 4319 bound_to 3762
   -3.6618   -4.9658    8.3662 LP  0  0  0  0  0  0  0  0  0  0  0  0  # atno 4320 bound_to 2467
   -4.8334   -5.4634    9.3892 LP  0  0  0  0  0  0  0  0  0  0  0  0  # atno 4321 bound_to 2467

> <Gold.Score>
     Score     S(PLP)   S(hbond)     S(cho)   S(metal)  DE(clash)   DE(tors)     intcor
     40.12     -36.01       1.00       0.72       0.00       0.00       0.53       0.00

> <Gold.PLP.Fitness>
40.1244

> <Gold.PLP.PLP>
-36.0139

> <Gold.PLP.part.hbond>
-1.6264

> <Gold.PLP.part.metal>
0.0000

> <Gold.PLP.part.buried>
-4.9042

> <Gold.PLP.part.nonpolar>
-31.1995

> <Gold.PLP.part.repulsive>
0.2798

> <Gold.PLP.ligand.clash>
0.0000

> <Gold.PLP.ligand.torsion>
0.5266

> <Gold.PLP.Chemscore.Hbond>
1.0000

> <Gold.PLP.Chemscore.CHOScore>
0.7212

> <Gold.PLP.Chemscore.Metal>
0.0000

> <Gold.Chemscore.Hbonds>
donor molecule, donor type, donor heavy atom, donor atom, acceptor molecule, acceptor atom, score
      P1  H  2305  2313       L1     4  1.00
      L1  C     6    19       P1  1227  0.72

> <Gold.PLP.Chemscore.Internal.Correction>
0.0002

