#       Name:                EN300-136798_i002
#       Creating user name   fsindt
#       Creation time:       Mon Feb 27 21:37:29 2023


#       File generated by GOLD software.
#

@<TRIPOS>MOLECULE
EN300-136798_i002|amine_3|mol2|877|dock18
    30    31     1
SMALL
USER_CHARGES


@<TRIPOS>ATOM
      1 C1          -0.8126 -24.9036  15.5623 C.3            1 <1>                0.0000
      2 O2          -1.0089 -23.4951  15.2692 O.3            1 <1>                0.0000
      3 C3          -0.0643 -22.8877  14.5244 C.2            1 <1>                0.0000
      4 O4           0.8948 -23.5191  14.1268 O.2            1 <1>                0.0000
      5 C5          -0.1945 -21.4578  14.1921 C.2            1 <1>                0.0000
      6 C6           0.6390 -20.7486  13.3735 C.2            1 <1>                0.0000
      7 N7           0.1691 -19.4859  13.3373 N.pl3          1 <1>                0.0000
      8 N8          -0.9692 -19.4527  14.1552 N.2            1 <1>                0.0000
      9 N9          -1.1567 -20.6316  14.6380 N.2            1 <1>                0.0000
     10 C10          0.7385 -18.3634  12.5876 C.3            1 <1>                0.0000
     11 C11         -0.0938 -17.1035  12.8428 C.3            1 <1>                0.0000
     12 C12          0.5543 -15.9201  12.1182 C.3            1 <1>                0.0000
     13 C13          2.0000 -15.7665  12.5956 C.3            1 <1>                0.0000
     14 N14          2.7496 -16.9933  12.2996 N.4            1 <1>                1.0000
     15 C15          2.1775 -18.1193  13.0476 C.3            1 <1>                0.0000
     16 H16         -1.6428 -25.2679  16.1675 H              1 <1>                0.0000
     17 H17         -0.7685 -25.4661  14.6296 H              1 <1>                0.0000
     18 H18          0.1208 -25.0342  16.1098 H              1 <1>                0.0000
     19 H19          1.5078 -21.1271  12.8556 H              1 <1>                0.0000
     20 H20          0.7305 -18.5955  11.5227 H              1 <1>                0.0000
     21 H21         -1.1054 -17.2523  12.4653 H              1 <1>                0.0000
     22 H22         -0.1291 -16.9005  13.9131 H              1 <1>                0.0000
     23 H23          0.5431 -16.1010  11.0434 H              1 <1>                0.0000
     24 H24         -0.0011 -15.0089  12.3404 H              1 <1>                0.0000
     25 H25          2.4643 -14.9248  12.0818 H              1 <1>                0.0000
     26 H26          2.0101 -15.5854  13.6703 H              1 <1>                0.0000
     27 H27          2.1837 -17.8881  14.1127 H              1 <1>                0.0000
     28 H28          2.7727 -19.0144  12.8675 H              1 <1>                0.0000
     29 H29          2.6987 -17.1872  11.3108 H              1 <1>                0.0000
     30 H30          3.7147 -16.8693  12.5668 H              1 <1>                0.0000
@<TRIPOS>BOND
    1    1    2 1     
    2    1   16 1     
    3    1   17 1     
    4    1   18 1     
    5    2    3 1     
    6    3    4 2     
    7    3    5 1     
    8    5    6 2     
    9    5    9 1     
   10    6    7 1     
   11    6   19 1     
   12    7    8 1     
   13    7   10 1     
   14    8    9 2     
   15   10   11 1     
   16   10   15 1     
   17   10   20 1     
   18   11   12 1     
   19   11   21 1     
   20   11   22 1     
   21   12   13 1     
   22   12   23 1     
   23   12   24 1     
   24   13   14 1     
   25   13   25 1     
   26   13   26 1     
   27   14   15 1     
   28   14   29 1     
   29   14   30 1     
   30   15   27 1     
   31   15   28 1     
@<TRIPOS>SUBSTRUCTURE
      1 ****           1
@<TRIPOS>SET
DONOR_HYDROGENS      STATIC     ATOMS    <user>   **** ""
2 29 30
ATOM$RED        STATIC     ATOMS    COLORGROUP SYSTEM
2 29 30
@<TRIPOS>COMMENT
> <Gold.Version>
2022.2.0

> <Gold.Id.Protein>
3pbl|protein|mol2

> <Gold.Protein.RotatedTorsions>
[ 1303 1298 1297 1294 ] final  151.13 input  179.99 | X-H torsion
[ 2461 2456 2455 2452 ] final  156.03 input   30.03 | X-H torsion
[ 2515 2510 2509 2506 ] final  -19.36 input  -89.99 | X-H torsion
[ 3721 3712 3711 3710 ] final    6.86 input -179.91 | X-H torsion
[ 3841 3832 3831 3830 ] final   35.88 input -179.91 | X-H torsion
[ 3767 3762 3761 3758 ] final   91.85 input  -89.99 | X-H torsion
[ 2472 2467 2466 2463 ] final -169.17 input  -89.97 | X-H torsion

> <Gold.Protein.ActiveResidues>
 VAL82   VAL86   LEU89   PHE106  VAL107  ASP110  VAL111  MET112  CYS114  THR115 
 CYS181  SER182  ILE183  PHE188  VAL189  ILE190  SER192  SER193  SER196  TRP342 
 PHE345  PHE346  HIS349  VAL350  TYR365  THR369  GLY372  TYR373 

> <Gold.Protein.RotatedAtoms>
    4.9057   -9.2974    4.8801 H   0  0  0  0  0  0  0  0  0  0  0  0  # atno 1303 bound_to 1298
    1.7957   -9.0403    8.3451 H   0  0  0  0  0  0  0  0  0  0  0  0  # atno 2461 bound_to 2456
   -5.2335   -5.4227    9.1519 H   0  0  0  0  0  0  0  0  0  0  0  0  # atno 2472 bound_to 2467
    2.6636   -7.8674    4.4390 H   0  0  0  0  0  0  0  0  0  0  0  0  # atno 2515 bound_to 2510
   -2.4755  -17.9916   14.1454 H   0  0  0  0  0  0  0  0  0  0  0  0  # atno 3721 bound_to 3712
   -4.1733  -23.3261   10.5245 H   0  0  0  0  0  0  0  0  0  0  0  0  # atno 3767 bound_to 3762
    2.1428  -20.8282    9.6128 H   0  0  0  0  0  0  0  0  0  0  0  0  # atno 3841 bound_to 3832
    3.6441  -10.1871    4.3480 LP  0  0  0  0  0  0  0  0  0  0  0  0  # atno 4297 bound_to 1298
    3.8121   -8.6368    3.8632 LP  0  0  0  0  0  0  0  0  0  0  0  0  # atno 4298 bound_to 1298
    1.6050   -7.9265    7.1659 LP  0  0  0  0  0  0  0  0  0  0  0  0  # atno 4299 bound_to 2456
    0.3373   -8.8415    7.6374 LP  0  0  0  0  0  0  0  0  0  0  0  0  # atno 4300 bound_to 2456
    2.6030   -9.2578    5.2928 LP  0  0  0  0  0  0  0  0  0  0  0  0  # atno 4301 bound_to 2510
    2.0300   -7.8741    5.9438 LP  0  0  0  0  0  0  0  0  0  0  0  0  # atno 4302 bound_to 2510
   -3.4006  -16.7416   14.5449 LP  0  0  0  0  0  0  0  0  0  0  0  0  # atno 4306 bound_to 3712
   -3.2690  -17.2130   12.9870 LP  0  0  0  0  0  0  0  0  0  0  0  0  # atno 4307 bound_to 3712
    1.6612  -19.6943    8.5840 LP  0  0  0  0  0  0  0  0  0  0  0  0  # atno 4314 bound_to 3832
    3.0929  -20.4514    8.3754 LP  0  0  0  0  0  0  0  0  0  0  0  0  # atno 4315 bound_to 3832
   -5.4941  -22.3740   10.3993 LP  0  0  0  0  0  0  0  0  0  0  0  0  # atno 4318 bound_to 3762
   -4.4598  -22.1753   11.6472 LP  0  0  0  0  0  0  0  0  0  0  0  0  # atno 4319 bound_to 3762
   -4.8177   -4.8463    7.6818 LP  0  0  0  0  0  0  0  0  0  0  0  0  # atno 4320 bound_to 2467
   -3.6659   -5.1246    8.8055 LP  0  0  0  0  0  0  0  0  0  0  0  0  # atno 4321 bound_to 2467

> <Gold.Score>
     Score     S(PLP)   S(hbond)     S(cho)   S(metal)  DE(clash)   DE(tors)     intcor
     38.05     -29.07       3.00       0.00       0.00       0.00       0.01       0.00

> <Gold.PLP.Fitness>
38.0470

> <Gold.PLP.PLP>
-29.0685

> <Gold.PLP.part.hbond>
-2.0000

> <Gold.PLP.part.metal>
0.0000

> <Gold.PLP.part.buried>
-5.4381

> <Gold.PLP.part.nonpolar>
-21.9208

> <Gold.PLP.part.repulsive>
0.0943

> <Gold.PLP.ligand.clash>
0.0000

> <Gold.PLP.ligand.torsion>
0.0109

> <Gold.PLP.Chemscore.Hbond>
3.0000

> <Gold.PLP.Chemscore.CHOScore>
0.0000

> <Gold.PLP.Chemscore.Metal>
0.0000

> <Gold.Chemscore.Hbonds>
donor molecule, donor type, donor heavy atom, donor atom, acceptor molecule, acceptor atom, score
      L1  H    14    29       P1  1227  2.00
      P1  H  3712  3721       L1     8  1.00

> <Gold.PLP.Chemscore.Internal.Correction>
0.0002

