#       Name:                EN300-136798_i002
#       Creating user name   fsindt
#       Creation time:       Mon Feb 27 21:37:23 2023


#       File generated by GOLD software.
#

@<TRIPOS>MOLECULE
EN300-136798_i002|amine_3|mol2|877|dock10
    30    31     1
SMALL
USER_CHARGES


@<TRIPOS>ATOM
      1 C1          -2.8695 -10.1837   9.7339 C.3            1 <1>                0.0000
      2 O2          -2.1423 -11.3787  10.1231 O.3            1 <1>                0.0000
      3 C3          -0.9609 -11.6015   9.5144 C.2            1 <1>                0.0000
      4 O4          -0.5356 -10.8032   8.7029 O.2            1 <1>                0.0000
      5 C5          -0.1848 -12.8132   9.8329 C.2            1 <1>                0.0000
      6 C6          -0.4325 -13.6720  10.8667 C.2            1 <1>                0.0000
      7 N7           0.5022 -14.6409  10.8018 N.pl3          1 <1>                0.0000
      8 N8           1.3195 -14.3435   9.7020 N.2            1 <1>                0.0000
      9 N9           0.8832 -13.2641   9.1521 N.2            1 <1>                0.0000
     10 C10          0.6385 -15.7849  11.7068 C.3            1 <1>                0.0000
     11 C11          2.0005 -15.7256  12.4044 C.3            1 <1>                0.0000
     12 C12          2.1012 -16.8806  13.4049 C.3            1 <1>                0.0000
     13 C13          0.9381 -16.7930  14.3954 C.3            1 <1>                0.0000
     14 N14         -0.3348 -16.8819  13.6699 N.4            1 <1>                1.0000
     15 C15         -0.4705 -15.7380  12.7602 C.3            1 <1>                0.0000
     16 H16         -3.8004 -10.1250  10.2979 H              1 <1>                0.0000
     17 H17         -2.2613  -9.3037   9.9439 H              1 <1>                0.0000
     18 H18         -3.0926 -10.2251   8.6678 H              1 <1>                0.0000
     19 H19         -1.2247 -13.5899  11.5961 H              1 <1>                0.0000
     20 H20          0.5613 -16.7109  11.1371 H              1 <1>                0.0000
     21 H21          2.7941 -15.8156  11.6627 H              1 <1>                0.0000
     22 H22          2.0988 -14.7768  12.9319 H              1 <1>                0.0000
     23 H23          2.0541 -17.8297  12.8712 H              1 <1>                0.0000
     24 H24          3.0454 -16.8127  13.9454 H              1 <1>                0.0000
     25 H25          1.0069 -17.6138  15.1093 H              1 <1>                0.0000
     26 H26          0.9862 -15.8437  14.9289 H              1 <1>                0.0000
     27 H27         -0.3923 -14.8111  13.3284 H              1 <1>                0.0000
     28 H28         -1.4415 -15.7798  12.2669 H              1 <1>                0.0000
     29 H29         -0.3582 -17.7385  13.1373 H              1 <1>                0.0000
     30 H30         -1.0980 -16.8777  14.3299 H              1 <1>                0.0000
@<TRIPOS>BOND
    1    1    2 1     
    2    1   16 1     
    3    1   17 1     
    4    1   18 1     
    5    2    3 1     
    6    3    4 2     
    7    3    5 1     
    8    5    6 2     
    9    5    9 1     
   10    6    7 1     
   11    6   19 1     
   12    7    8 1     
   13    7   10 1     
   14    8    9 2     
   15   10   11 1     
   16   10   15 1     
   17   10   20 1     
   18   11   12 1     
   19   11   21 1     
   20   11   22 1     
   21   12   13 1     
   22   12   23 1     
   23   12   24 1     
   24   13   14 1     
   25   13   25 1     
   26   13   26 1     
   27   14   15 1     
   28   14   29 1     
   29   14   30 1     
   30   15   27 1     
   31   15   28 1     
@<TRIPOS>SUBSTRUCTURE
      1 ****           1
@<TRIPOS>SET
DONOR_HYDROGENS      STATIC     ATOMS    <user>   **** ""
2 29 30
ATOM$RED        STATIC     ATOMS    COLORGROUP SYSTEM
2 29 30
@<TRIPOS>COMMENT
> <Gold.Version>
2022.2.0

> <Gold.Id.Protein>
3pbl|protein|mol2

> <Gold.Protein.RotatedTorsions>
[ 1303 1298 1297 1294 ] final   20.24 input  179.99 | X-H torsion
[ 2461 2456 2455 2452 ] final -130.80 input   30.03 | X-H torsion
[ 2515 2510 2509 2506 ] final -120.04 input  -89.99 | X-H torsion
[ 3721 3712 3711 3710 ] final    5.84 input -179.91 | X-H torsion
[ 3841 3832 3831 3830 ] final  -81.39 input -179.91 | X-H torsion
[ 3767 3762 3761 3758 ] final   50.79 input  -89.99 | X-H torsion
[ 2472 2467 2466 2463 ] final   44.28 input  -89.97 | X-H torsion

> <Gold.Protein.ActiveResidues>
 VAL82   VAL86   LEU89   PHE106  VAL107  ASP110  VAL111  MET112  CYS114  THR115 
 CYS181  SER182  ILE183  PHE188  VAL189  ILE190  SER192  SER193  SER196  TRP342 
 PHE345  PHE346  HIS349  VAL350  TYR365  THR369  GLY372  TYR373 

> <Gold.Protein.RotatedAtoms>
    3.5332  -10.1001    4.2379 H   0  0  0  0  0  0  0  0  0  0  0  0  # atno 1303 bound_to 1298
    0.7044   -9.2352    8.1589 H   0  0  0  0  0  0  0  0  0  0  0  0  # atno 2461 bound_to 2456
   -4.3870   -4.8003    7.6832 H   0  0  0  0  0  0  0  0  0  0  0  0  # atno 2472 bound_to 2467
    2.7144   -9.2040    5.0016 H   0  0  0  0  0  0  0  0  0  0  0  0  # atno 2515 bound_to 2510
   -2.4768  -17.9870   14.1601 H   0  0  0  0  0  0  0  0  0  0  0  0  # atno 3721 bound_to 3712
   -4.6974  -23.2289   10.1329 H   0  0  0  0  0  0  0  0  0  0  0  0  # atno 3767 bound_to 3762
    1.7663  -19.6552    8.7957 H   0  0  0  0  0  0  0  0  0  0  0  0  # atno 3841 bound_to 3832
    3.9555   -8.5530    3.9303 LP  0  0  0  0  0  0  0  0  0  0  0  0  # atno 4297 bound_to 1298
    4.8737   -9.4680    4.9234 LP  0  0  0  0  0  0  0  0  0  0  0  0  # atno 4298 bound_to 1298
    2.1558   -8.5167    7.9477 LP  0  0  0  0  0  0  0  0  0  0  0  0  # atno 4299 bound_to 2456
    0.8775   -8.0565    7.0417 LP  0  0  0  0  0  0  0  0  0  0  0  0  # atno 4300 bound_to 2456
    2.0411   -8.1655    6.0664 LP  0  0  0  0  0  0  0  0  0  0  0  0  # atno 4301 bound_to 2510
    2.5410   -7.6292    4.6073 LP  0  0  0  0  0  0  0  0  0  0  0  0  # atno 4302 bound_to 2510
   -3.4071  -16.7324   14.5321 LP  0  0  0  0  0  0  0  0  0  0  0  0  # atno 4306 bound_to 3712
   -3.2611  -17.2276   12.9829 LP  0  0  0  0  0  0  0  0  0  0  0  0  # atno 4307 bound_to 3712
    3.0939  -20.4544    8.3775 LP  0  0  0  0  0  0  0  0  0  0  0  0  # atno 4314 bound_to 3832
    2.0951  -21.0462    9.5258 LP  0  0  0  0  0  0  0  0  0  0  0  0  # atno 4315 bound_to 3832
   -5.4096  -21.9992   10.9375 LP  0  0  0  0  0  0  0  0  0  0  0  0  # atno 4318 bound_to 3762
   -4.0204  -22.6472   11.5004 LP  0  0  0  0  0  0  0  0  0  0  0  0  # atno 4319 bound_to 3762
   -3.8688   -5.2738    9.1575 LP  0  0  0  0  0  0  0  0  0  0  0  0  # atno 4320 bound_to 2467
   -5.4611   -5.3195    8.7982 LP  0  0  0  0  0  0  0  0  0  0  0  0  # atno 4321 bound_to 2467

> <Gold.Score>
     Score     S(PLP)   S(hbond)     S(cho)   S(metal)  DE(clash)   DE(tors)     intcor
     45.79     -42.91       1.00       0.00       0.00       0.00       0.06       0.00

> <Gold.PLP.Fitness>
45.7885

> <Gold.PLP.PLP>
-42.9130

> <Gold.PLP.part.hbond>
-2.0000

> <Gold.PLP.part.metal>
0.0000

> <Gold.PLP.part.buried>
-6.7011

> <Gold.PLP.part.nonpolar>
-35.7121

> <Gold.PLP.part.repulsive>
0.1696

> <Gold.PLP.ligand.clash>
0.0000

> <Gold.PLP.ligand.torsion>
0.0624

> <Gold.PLP.Chemscore.Hbond>
1.0000

> <Gold.PLP.Chemscore.CHOScore>
0.0000

> <Gold.PLP.Chemscore.Metal>
0.0000

> <Gold.Chemscore.Hbonds>
donor molecule, donor type, donor heavy atom, donor atom, acceptor molecule, acceptor atom, score
      P1  H  2456  2461       L1     4  1.00

> <Gold.PLP.Chemscore.Internal.Correction>
0.0002

