#       Name:                EN300-136798_i002
#       Creating user name   fsindt
#       Creation time:       Mon Feb 27 21:37:30 2023


#       File generated by GOLD software.
#

@<TRIPOS>MOLECULE
EN300-136798_i002|amine_3|mol2|877|dock20
    30    31     1
SMALL
USER_CHARGES


@<TRIPOS>ATOM
      1 C1          -0.3965 -19.8472  11.8025 C.3            1 <1>                0.0000
      2 O2          -0.1909 -18.5187  11.2536 O.3            1 <1>                0.0000
      3 C3          -0.3979 -17.4759  12.0815 C.2            1 <1>                0.0000
      4 O4          -0.7348 -17.6716  13.2325 O.2            1 <1>                0.0000
      5 C5          -0.2157 -16.0981  11.5910 C.2            1 <1>                0.0000
      6 C6           0.4647 -15.7349  10.4628 C.2            1 <1>                0.0000
      7 N7           0.3920 -14.3917  10.3784 N.pl3          1 <1>                0.0000
      8 N8          -0.3500 -13.9550  11.4850 N.2            1 <1>                0.0000
      9 N9          -0.6958 -14.9861  12.1744 N.2            1 <1>                0.0000
     10 C10          0.9763 -13.5496   9.3317 C.3            1 <1>                0.0000
     11 C11          0.5379 -14.0640   7.9575 C.3            1 <1>                0.0000
     12 C12          1.0891 -13.1317   6.8748 C.3            1 <1>                0.0000
     13 C13          0.6036 -11.7054   7.1420 C.3            1 <1>                0.0000
     14 N14          1.0771 -11.2622   8.4588 N.4            1 <1>                1.0000
     15 C15          0.4950 -12.1077   9.5079 C.3            1 <1>                0.0000
     16 H16         -0.1966 -20.5931  11.0332 H              1 <1>                0.0000
     17 H17          0.2800 -20.0017  12.6430 H              1 <1>                0.0000
     18 H18         -1.4274 -19.9440  12.1431 H              1 <1>                0.0000
     19 H19          0.9653 -16.3970   9.7718 H              1 <1>                0.0000
     20 H20          2.0634 -13.5824   9.4028 H              1 <1>                0.0000
     21 H21          0.9266 -15.0707   7.8041 H              1 <1>                0.0000
     22 H22         -0.5507 -14.0803   7.9047 H              1 <1>                0.0000
     23 H23          2.1786 -13.1550   6.8945 H              1 <1>                0.0000
     24 H24          0.7350 -13.4595   5.8973 H              1 <1>                0.0000
     25 H25          0.9941 -11.0390   6.3728 H              1 <1>                0.0000
     26 H26         -0.4860 -11.6831   7.1217 H              1 <1>                0.0000
     27 H27         -0.5923 -12.0770   9.4373 H              1 <1>                0.0000
     28 H28          0.8053 -11.7386  10.4853 H              1 <1>                0.0000
     29 H29          2.0832 -11.3296   8.4935 H              1 <1>                0.0000
     30 H30          0.8008 -10.3034   8.6092 H              1 <1>                0.0000
@<TRIPOS>BOND
    1    1    2 1     
    2    1   16 1     
    3    1   17 1     
    4    1   18 1     
    5    2    3 1     
    6    3    4 2     
    7    3    5 1     
    8    5    6 2     
    9    5    9 1     
   10    6    7 1     
   11    6   19 1     
   12    7    8 1     
   13    7   10 1     
   14    8    9 2     
   15   10   11 1     
   16   10   15 1     
   17   10   20 1     
   18   11   12 1     
   19   11   21 1     
   20   11   22 1     
   21   12   13 1     
   22   12   23 1     
   23   12   24 1     
   24   13   14 1     
   25   13   25 1     
   26   13   26 1     
   27   14   15 1     
   28   14   29 1     
   29   14   30 1     
   30   15   27 1     
   31   15   28 1     
@<TRIPOS>SUBSTRUCTURE
      1 ****           1
@<TRIPOS>SET
DONOR_HYDROGENS      STATIC     ATOMS    <user>   **** ""
2 29 30
ATOM$RED        STATIC     ATOMS    COLORGROUP SYSTEM
2 29 30
@<TRIPOS>COMMENT
> <Gold.Version>
2022.2.0

> <Gold.Id.Protein>
3pbl|protein|mol2

> <Gold.Protein.RotatedTorsions>
[ 1303 1298 1297 1294 ] final  133.99 input  179.99 | X-H torsion
[ 2461 2456 2455 2452 ] final  -18.73 input   30.03 | X-H torsion
[ 2515 2510 2509 2506 ] final   56.82 input  -89.99 | X-H torsion
[ 3721 3712 3711 3710 ] final   44.26 input -179.91 | X-H torsion
[ 3841 3832 3831 3830 ] final -154.08 input -179.91 | X-H torsion
[ 3767 3762 3761 3758 ] final   38.84 input  -89.99 | X-H torsion
[ 2472 2467 2466 2463 ] final  -73.71 input  -89.97 | X-H torsion

> <Gold.Protein.ActiveResidues>
 VAL82   VAL86   LEU89   PHE106  VAL107  ASP110  VAL111  MET112  CYS114  THR115 
 CYS181  SER182  ILE183  PHE188  VAL189  ILE190  SER192  SER193  SER196  TRP342 
 PHE345  PHE346  HIS349  VAL350  TYR365  THR369  GLY372  TYR373 

> <Gold.Protein.RotatedAtoms>
    4.8422   -9.5645    4.9397 H   0  0  0  0  0  0  0  0  0  0  0  0  # atno 1303 bound_to 1298
    0.7653   -8.1187    7.0648 H   0  0  0  0  0  0  0  0  0  0  0  0  # atno 2461 bound_to 2456
   -3.8474   -5.2639    9.1344 H   0  0  0  0  0  0  0  0  0  0  0  0  # atno 2472 bound_to 2467
    2.1665   -7.4463    5.4021 H   0  0  0  0  0  0  0  0  0  0  0  0  # atno 2515 bound_to 2510
   -2.5213  -17.9976   13.5920 H   0  0  0  0  0  0  0  0  0  0  0  0  # atno 3721 bound_to 3712
   -4.8636  -23.1384   10.0813 H   0  0  0  0  0  0  0  0  0  0  0  0  # atno 3767 bound_to 3762
    2.6799  -19.7864    8.3475 H   0  0  0  0  0  0  0  0  0  0  0  0  # atno 3841 bound_to 3832
    3.4791  -10.0386    4.1758 LP  0  0  0  0  0  0  0  0  0  0  0  0  # atno 4297 bound_to 1298
    4.0405   -8.5182    3.9759 LP  0  0  0  0  0  0  0  0  0  0  0  0  # atno 4298 bound_to 1298
    0.8115   -9.2656    8.2266 LP  0  0  0  0  0  0  0  0  0  0  0  0  # atno 4299 bound_to 2456
    2.1608   -8.4237    7.8565 LP  0  0  0  0  0  0  0  0  0  0  0  0  # atno 4300 bound_to 2456
    2.8282   -8.5503    4.3975 LP  0  0  0  0  0  0  0  0  0  0  0  0  # atno 4301 bound_to 2510
    2.3022   -9.0030    5.8756 LP  0  0  0  0  0  0  0  0  0  0  0  0  # atno 4302 bound_to 2510
   -3.1152  -17.1928   14.8479 LP  0  0  0  0  0  0  0  0  0  0  0  0  # atno 4306 bound_to 3712
   -3.5017  -16.7549   13.3229 LP  0  0  0  0  0  0  0  0  0  0  0  0  # atno 4307 bound_to 3712
    2.7386  -21.1386    9.2101 LP  0  0  0  0  0  0  0  0  0  0  0  0  # atno 4314 bound_to 3832
    1.3951  -20.2104    9.2109 LP  0  0  0  0  0  0  0  0  0  0  0  0  # atno 4315 bound_to 3832
   -5.3135  -21.9432   11.0991 LP  0  0  0  0  0  0  0  0  0  0  0  0  # atno 4318 bound_to 3762
   -3.9503  -22.7937   11.3904 LP  0  0  0  0  0  0  0  0  0  0  0  0  # atno 4319 bound_to 3762
   -5.4500   -5.3290    8.8281 LP  0  0  0  0  0  0  0  0  0  0  0  0  # atno 4320 bound_to 2467
   -4.4194   -4.8007    7.6768 LP  0  0  0  0  0  0  0  0  0  0  0  0  # atno 4321 bound_to 2467

> <Gold.Score>
     Score     S(PLP)   S(hbond)     S(cho)   S(metal)  DE(clash)   DE(tors)     intcor
     41.93     -34.47       1.66       0.99       0.00       0.00       0.26       0.00

> <Gold.PLP.Fitness>
41.9294

> <Gold.PLP.PLP>
-34.4722

> <Gold.PLP.part.hbond>
-2.0000

> <Gold.PLP.part.metal>
0.0000

> <Gold.PLP.part.buried>
-2.3898

> <Gold.PLP.part.nonpolar>
-30.4906

> <Gold.PLP.part.repulsive>
0.2266

> <Gold.PLP.ligand.clash>
0.0000

> <Gold.PLP.ligand.torsion>
0.2556

> <Gold.PLP.Chemscore.Hbond>
1.6640

> <Gold.PLP.Chemscore.CHOScore>
0.9921

> <Gold.PLP.Chemscore.Metal>
0.0000

> <Gold.Chemscore.Hbonds>
donor molecule, donor type, donor heavy atom, donor atom, acceptor molecule, acceptor atom, score
      L1  H    14    30       P1  2456  0.85
      P1  H  3712  3721       L1     4  0.82
      L1  C     6    19       P1  1227  0.99

> <Gold.PLP.Chemscore.Internal.Correction>
0.0002

