#       Name:                EN300-1071101_i001
#       Creating user name   fsindt
#       Creation time:       Wed Mar  1 13:04:15 2023


#       File generated by GOLD software.
#

@<TRIPOS>MOLECULE
EN300-1071101_i001|acide_1|mol2|8527|dock18
    41    41     1
SMALL
USER_CHARGES


@<TRIPOS>ATOM
      1 C1           1.8579 -23.4045  14.3995 C.3            1 <1>                0.0000
      2 O2           1.5583 -22.2569  13.6024 O.3            1 <1>                0.0000
      3 C3           1.3623 -21.0597  14.3576 C.3            1 <1>                0.0000
      4 C4           0.3097 -20.1888  13.6687 C.3            1 <1>                0.0000
      5 N5          -0.9874 -20.3822  14.3215 N.am           1 <1>                0.0000
      6 C6          -1.5158 -21.6184  14.4174 C.2            1 <1>                0.0000
      7 O7          -0.9163 -22.5724  13.9625 O.2            1 <1>                0.0000
      8 O8          -2.7080 -21.7962  15.0174 O.3            1 <1>                0.0000
      9 C9          -3.0682 -23.1558  15.3779 C.3            1 <1>                0.0000
     10 C10         -1.9464 -23.7763  16.2129 C.3            1 <1>                0.0000
     11 C11         -4.3627 -23.1412  16.1934 C.3            1 <1>                0.0000
     12 C12         -3.2753 -23.9826  14.1072 C.3            1 <1>                0.0000
     13 C13          0.2051 -20.5808  12.2174 C.2            1 <1>                0.0000
     14 O14         -0.8055 -21.1228  11.8036 O.co2          1 <1>                0.0000
     15 O15          1.1312 -20.3557  11.4569 O.co2          1 <1>               -1.0000
     16 C16          0.7120 -18.7400  13.7701 C.ar           1 <1>                0.0000
     17 C17         -0.1002 -17.7581  13.2344 C.ar           1 <1>                0.0000
     18 C18          0.2688 -16.4292  13.3273 C.ar           1 <1>                0.0000
     19 C19          1.4498 -16.0822  13.9563 C.ar           1 <1>                0.0000
     20 C20          2.2616 -17.0640  14.4928 C.ar           1 <1>                0.0000
     21 C21          1.8905 -18.3926  14.4037 C.ar           1 <1>                0.0000
     22 H22          1.9924 -24.2713  13.7525 H              1 <1>                0.0000
     23 H23          2.7736 -23.2263  14.9633 H              1 <1>                0.0000
     24 H24          1.0361 -23.5912  15.0909 H              1 <1>                0.0000
     25 H25          1.0225 -21.3148  15.3614 H              1 <1>                0.0000
     26 H26          2.3025 -20.5119  14.4205 H              1 <1>                0.0000
     27 H27         -1.7989 -23.1874  17.1181 H              1 <1>                0.0000
     28 H28         -2.2168 -24.7970  16.4835 H              1 <1>                0.0000
     29 H29         -1.0242 -23.7867  15.6319 H              1 <1>                0.0000
     30 H30         -5.1620 -22.6992  15.5985 H              1 <1>                0.0000
     31 H31         -4.6331 -24.1619  16.4641 H              1 <1>                0.0000
     32 H32         -4.2152 -22.5522  17.0986 H              1 <1>                0.0000
     33 H33         -2.3531 -23.9929  13.5262 H              1 <1>                0.0000
     34 H34         -3.5457 -25.0033  14.3779 H              1 <1>                0.0000
     35 H35         -4.0746 -23.5405  13.5124 H              1 <1>                0.0000
     36 H36         -1.0229 -18.0291  12.7429 H              1 <1>                0.0000
     37 H37         -0.3654 -15.6620  12.9082 H              1 <1>                0.0000
     38 H38          1.7385 -15.0439  14.0283 H              1 <1>                0.0000
     39 H39          3.1845 -16.7929  14.9840 H              1 <1>                0.0000
     40 H40          2.5247 -19.1597  14.8228 H              1 <1>                0.0000
     41 H41         -1.4660 -19.6207  14.6846 H              1 <1>                0.0000
@<TRIPOS>BOND
    1    1    2 1     
    2    1   22 1     
    3    1   23 1     
    4    1   24 1     
    5    2    3 1     
    6    3    4 1     
    7    3   25 1     
    8    3   26 1     
    9    4    5 1     
   10    4   13 1     
   11    4   16 1     
   12    5    6 am    
   13    5   41 1     
   14    6    7 2     
   15    6    8 1     
   16    8    9 1     
   17    9   10 1     
   18    9   11 1     
   19    9   12 1     
   20   10   27 1     
   21   10   28 1     
   22   10   29 1     
   23   11   30 1     
   24   11   31 1     
   25   11   32 1     
   26   12   33 1     
   27   12   34 1     
   28   12   35 1     
   29   13   14 ar    
   30   13   15 ar    
   31   16   17 ar    
   32   16   21 ar    
   33   17   18 ar    
   34   17   36 1     
   35   18   19 ar    
   36   18   37 1     
   37   19   20 ar    
   38   19   38 1     
   39   20   21 ar    
   40   20   39 1     
   41   21   40 1     
@<TRIPOS>SUBSTRUCTURE
      1 ****           1
@<TRIPOS>SET
DONOR_HYDROGENS      STATIC     ATOMS    <user>   **** ""
1 41
ATOM$RED        STATIC     ATOMS    COLORGROUP SYSTEM
1 41
@<TRIPOS>COMMENT
> <Gold.Version>
2022.2.0

> <Gold.Id.Protein>
3pbl|protein|mol2

> <Gold.Protein.RotatedTorsions>
[ 1303 1298 1297 1294 ] final   48.72 input  179.99 | X-H torsion
[ 2461 2456 2455 2452 ] final   63.41 input   30.03 | X-H torsion
[ 2515 2510 2509 2506 ] final  129.76 input  -89.99 | X-H torsion
[ 3721 3712 3711 3710 ] final  154.92 input -179.91 | X-H torsion
[ 3841 3832 3831 3830 ] final    2.35 input -179.91 | X-H torsion
[ 3767 3762 3761 3758 ] final  -39.71 input  -89.99 | X-H torsion
[ 2472 2467 2466 2463 ] final -160.72 input  -89.97 | X-H torsion

> <Gold.Protein.ActiveResidues>
 VAL82   VAL86   LEU89   PHE106  VAL107  ASP110  VAL111  MET112  CYS114  THR115 
 CYS181  SER182  ILE183  PHE188  VAL189  ILE190  SER192  SER193  SER196  TRP342 
 PHE345  PHE346  HIS349  VAL350  TYR365  THR369  GLY372  TYR373 

> <Gold.Protein.RotatedAtoms>
    3.8570  -10.2640    4.5265 H   0  0  0  0  0  0  0  0  0  0  0  0  # atno 1303 bound_to 1298
    1.9521   -8.0548    7.4152 H   0  0  0  0  0  0  0  0  0  0  0  0  # atno 2461 bound_to 2456
   -5.1287   -5.4431    9.2407 H   0  0  0  0  0  0  0  0  0  0  0  0  # atno 2472 bound_to 2467
    2.0641   -8.3227    6.0926 H   0  0  0  0  0  0  0  0  0  0  0  0  # atno 2515 bound_to 2510
   -3.2314  -16.8123   13.2444 H   0  0  0  0  0  0  0  0  0  0  0  0  # atno 3721 bound_to 3712
   -5.5111  -22.2452   10.5381 H   0  0  0  0  0  0  0  0  0  0  0  0  # atno 3767 bound_to 3762
    1.7575  -20.5133    9.5694 H   0  0  0  0  0  0  0  0  0  0  0  0  # atno 3841 bound_to 3832
    3.6065   -8.8264    3.7939 LP  0  0  0  0  0  0  0  0  0  0  0  0  # atno 4297 bound_to 1298
    4.8987   -9.0306    4.7711 LP  0  0  0  0  0  0  0  0  0  0  0  0  # atno 4298 bound_to 1298
    0.3884   -8.5191    7.3332 LP  0  0  0  0  0  0  0  0  0  0  0  0  # atno 4299 bound_to 2456
    1.3974   -9.2341    8.3996 LP  0  0  0  0  0  0  0  0  0  0  0  0  # atno 4300 bound_to 2456
    2.4734   -7.5375    4.7208 LP  0  0  0  0  0  0  0  0  0  0  0  0  # atno 4301 bound_to 2510
    2.7594   -9.1390    4.8614 LP  0  0  0  0  0  0  0  0  0  0  0  0  # atno 4302 bound_to 2510
   -2.6288  -18.2119   13.7502 LP  0  0  0  0  0  0  0  0  0  0  0  0  # atno 4306 bound_to 3712
   -3.1682  -17.1043   14.8220 LP  0  0  0  0  0  0  0  0  0  0  0  0  # atno 4307 bound_to 3712
    2.1094  -19.6474    8.2646 LP  0  0  0  0  0  0  0  0  0  0  0  0  # atno 4314 bound_to 3832
    3.0897  -20.8619    8.7449 LP  0  0  0  0  0  0  0  0  0  0  0  0  # atno 4315 bound_to 3832
   -4.3121  -22.2946   11.6457 LP  0  0  0  0  0  0  0  0  0  0  0  0  # atno 4318 bound_to 3762
   -4.3044  -23.3351   10.3872 LP  0  0  0  0  0  0  0  0  0  0  0  0  # atno 4319 bound_to 3762
   -4.9479   -4.8746    7.7206 LP  0  0  0  0  0  0  0  0  0  0  0  0  # atno 4320 bound_to 2467
   -3.6404   -5.0758    8.6780 LP  0  0  0  0  0  0  0  0  0  0  0  0  # atno 4321 bound_to 2467

> <Gold.Score>
     Score     S(PLP)   S(hbond)     S(cho)   S(metal)  DE(clash)   DE(tors)     intcor
     40.52     -39.52       1.00       0.00       0.00       1.11       1.47       2.04

> <Gold.PLP.Fitness>
40.5184

> <Gold.PLP.PLP>
-39.5228

> <Gold.PLP.part.hbond>
-1.0000

> <Gold.PLP.part.metal>
0.0000

> <Gold.PLP.part.buried>
-3.3824

> <Gold.PLP.part.nonpolar>
-36.1523

> <Gold.PLP.part.repulsive>
0.1032

> <Gold.PLP.ligand.clash>
1.1109

> <Gold.PLP.ligand.torsion>
1.4657

> <Gold.PLP.Chemscore.Hbond>
1.0000

> <Gold.PLP.Chemscore.CHOScore>
0.0000

> <Gold.PLP.Chemscore.Metal>
0.0000

> <Gold.Chemscore.Hbonds>
donor molecule, donor type, donor heavy atom, donor atom, acceptor molecule, acceptor atom, score
      P1  H  3832  3841       L1    15  1.00

> <Gold.PLP.Chemscore.Internal.Correction>
2.0378

