#       Name:                EN300-1071101_i001
#       Creating user name   fsindt
#       Creation time:       Wed Mar  1 13:04:06 2023


#       File generated by GOLD software.
#

@<TRIPOS>MOLECULE
EN300-1071101_i001|acide_1|mol2|8527|dock13
    41    41     1
SMALL
USER_CHARGES


@<TRIPOS>ATOM
      1 C1           3.9537 -17.6927  12.5916 C.3            1 <1>                0.0000
      2 O2           2.5843 -17.5509  12.9748 O.3            1 <1>                0.0000
      3 C3           1.9799 -16.3341  12.5321 C.3            1 <1>                0.0000
      4 C4           0.4618 -16.5134  12.4662 C.3            1 <1>                0.0000
      5 N5           0.0299 -16.5099  11.0663 N.am           1 <1>                0.0000
      6 C6           0.3389 -15.4684  10.2685 C.2            1 <1>                0.0000
      7 O7           0.9756 -14.5325  10.7102 O.2            1 <1>                0.0000
      8 O8          -0.0580 -15.4652   8.9819 O.3            1 <1>                0.0000
      9 C9           0.1916 -14.2557   8.2181 C.3            1 <1>                0.0000
     10 C10          1.7000 -14.0249   8.1071 C.3            1 <1>                0.0000
     11 C11         -0.4061 -14.4046   6.8176 C.3            1 <1>                0.0000
     12 C12         -0.4562 -13.0634   8.9249 C.3            1 <1>                0.0000
     13 C13         -0.2099 -15.3828  13.2020 C.2            1 <1>                0.0000
     14 O14         -0.0996 -15.2926  14.4128 O.co2          1 <1>                0.0000
     15 O15         -0.8637 -14.5581  12.5863 O.co2          1 <1>               -1.0000
     16 C16          0.0826 -17.8244  13.1055 C.ar           1 <1>                0.0000
     17 C17          0.3008 -18.0234  14.4559 C.ar           1 <1>                0.0000
     18 C18         -0.0469 -19.2259  15.0423 C.ar           1 <1>                0.0000
     19 C19         -0.6131 -20.2292  14.2784 C.ar           1 <1>                0.0000
     20 C20         -0.8321 -20.0298  12.9282 C.ar           1 <1>                0.0000
     21 C21         -0.4884 -18.8258  12.3426 C.ar           1 <1>                0.0000
     22 H22          4.3393 -18.6412  12.9653 H              1 <1>                0.0000
     23 H23          4.0308 -17.6721  11.5045 H              1 <1>                0.0000
     24 H24          4.5356 -16.8727  13.0126 H              1 <1>                0.0000
     25 H25          2.2212 -15.5332  13.2309 H              1 <1>                0.0000
     26 H26          2.3589 -16.0792  11.5424 H              1 <1>                0.0000
     27 H27          2.1614 -14.8743   7.6035 H              1 <1>                0.0000
     28 H28          1.8874 -13.1169   7.5338 H              1 <1>                0.0000
     29 H29          2.1257 -13.9188   9.1049 H              1 <1>                0.0000
     30 H30         -1.4807 -14.5690   6.8967 H              1 <1>                0.0000
     31 H31         -0.2187 -13.4967   6.2442 H              1 <1>                0.0000
     32 H32          0.0554 -15.2540   6.3140 H              1 <1>                0.0000
     33 H33         -0.0305 -12.9574   9.9227 H              1 <1>                0.0000
     34 H34         -0.2688 -12.1554   8.3516 H              1 <1>                0.0000
     35 H35         -1.5308 -13.2279   9.0040 H              1 <1>                0.0000
     36 H36          0.7433 -17.2396  15.0528 H              1 <1>                0.0000
     37 H37          0.1241 -19.3817  16.0973 H              1 <1>                0.0000
     38 H38         -0.8842 -21.1690  14.7365 H              1 <1>                0.0000
     39 H39         -1.2743 -20.8139  12.3313 H              1 <1>                0.0000
     40 H40         -0.6595 -18.6700  11.2877 H              1 <1>                0.0000
     41 H41         -0.4784 -17.2570  10.7136 H              1 <1>                0.0000
@<TRIPOS>BOND
    1    1    2 1     
    2    1   22 1     
    3    1   23 1     
    4    1   24 1     
    5    2    3 1     
    6    3    4 1     
    7    3   25 1     
    8    3   26 1     
    9    4    5 1     
   10    4   13 1     
   11    4   16 1     
   12    5    6 am    
   13    5   41 1     
   14    6    7 2     
   15    6    8 1     
   16    8    9 1     
   17    9   10 1     
   18    9   11 1     
   19    9   12 1     
   20   10   27 1     
   21   10   28 1     
   22   10   29 1     
   23   11   30 1     
   24   11   31 1     
   25   11   32 1     
   26   12   33 1     
   27   12   34 1     
   28   12   35 1     
   29   13   14 ar    
   30   13   15 ar    
   31   16   17 ar    
   32   16   21 ar    
   33   17   18 ar    
   34   17   36 1     
   35   18   19 ar    
   36   18   37 1     
   37   19   20 ar    
   38   19   38 1     
   39   20   21 ar    
   40   20   39 1     
   41   21   40 1     
@<TRIPOS>SUBSTRUCTURE
      1 ****           1
@<TRIPOS>SET
DONOR_HYDROGENS      STATIC     ATOMS    <user>   **** ""
1 41
ATOM$RED        STATIC     ATOMS    COLORGROUP SYSTEM
1 41
@<TRIPOS>COMMENT
> <Gold.Version>
2022.2.0

> <Gold.Id.Protein>
3pbl|protein|mol2

> <Gold.Protein.RotatedTorsions>
[ 1303 1298 1297 1294 ] final   91.53 input  179.99 | X-H torsion
[ 2461 2456 2455 2452 ] final  155.07 input   30.03 | X-H torsion
[ 2515 2510 2509 2506 ] final   63.69 input  -89.99 | X-H torsion
[ 3721 3712 3711 3710 ] final  160.35 input -179.91 | X-H torsion
[ 3841 3832 3831 3830 ] final  -41.89 input -179.91 | X-H torsion
[ 3767 3762 3761 3758 ] final  123.01 input  -89.99 | X-H torsion
[ 2472 2467 2466 2463 ] final  167.66 input  -89.97 | X-H torsion

> <Gold.Protein.ActiveResidues>
 VAL82   VAL86   LEU89   PHE106  VAL107  ASP110  VAL111  MET112  CYS114  THR115 
 CYS181  SER182  ILE183  PHE188  VAL189  ILE190  SER192  SER193  SER196  TRP342 
 PHE345  PHE346  HIS349  VAL350  TYR365  THR369  GLY372  TYR373 

> <Gold.Protein.RotatedAtoms>
    4.4342  -10.1069    4.8666 H   0  0  0  0  0  0  0  0  0  0  0  0  # atno 1303 bound_to 1298
    1.8080   -9.0313    8.3404 H   0  0  0  0  0  0  0  0  0  0  0  0  # atno 2461 bound_to 2456
   -5.4418   -5.3360    8.8478 H   0  0  0  0  0  0  0  0  0  0  0  0  # atno 2472 bound_to 2467
    2.1321   -7.4840    5.5029 H   0  0  0  0  0  0  0  0  0  0  0  0  # atno 2515 bound_to 2510
   -3.2569  -16.7589   13.3011 H   0  0  0  0  0  0  0  0  0  0  0  0  # atno 3721 bound_to 3712
   -3.9415  -23.1655   10.9452 H   0  0  0  0  0  0  0  0  0  0  0  0  # atno 3767 bound_to 3762
    1.5622  -19.9947    9.2261 H   0  0  0  0  0  0  0  0  0  0  0  0  # atno 3841 bound_to 3832
    3.3348   -9.4563    3.8495 LP  0  0  0  0  0  0  0  0  0  0  0  0  # atno 4297 bound_to 1298
    4.5930   -8.5578    4.3753 LP  0  0  0  0  0  0  0  0  0  0  0  0  # atno 4298 bound_to 1298
    1.5907   -7.9247    7.1591 LP  0  0  0  0  0  0  0  0  0  0  0  0  # atno 4299 bound_to 2456
    0.3392   -8.8523    7.6489 LP  0  0  0  0  0  0  0  0  0  0  0  0  # atno 4300 bound_to 2456
    2.8159   -8.4411    4.3707 LP  0  0  0  0  0  0  0  0  0  0  0  0  # atno 4301 bound_to 2510
    2.3488   -9.0744    5.8016 LP  0  0  0  0  0  0  0  0  0  0  0  0  # atno 4302 bound_to 2510
   -2.6444  -18.1984   13.6619 LP  0  0  0  0  0  0  0  0  0  0  0  0  # atno 4306 bound_to 3712
   -3.1231  -17.1795   14.8448 LP  0  0  0  0  0  0  0  0  0  0  0  0  # atno 4307 bound_to 3712
    2.7492  -19.9580    8.1464 LP  0  0  0  0  0  0  0  0  0  0  0  0  # atno 4314 bound_to 3832
    2.6755  -21.1504    9.2597 LP  0  0  0  0  0  0  0  0  0  0  0  0  # atno 4315 bound_to 3832
   -5.2954  -22.7541   10.1301 LP  0  0  0  0  0  0  0  0  0  0  0  0  # atno 4318 bound_to 3762
   -4.8901  -21.9557   11.4958 LP  0  0  0  0  0  0  0  0  0  0  0  0  # atno 4319 bound_to 3762
   -4.4418   -4.8017    7.6728 LP  0  0  0  0  0  0  0  0  0  0  0  0  # atno 4320 bound_to 2467
   -3.8335   -5.2559    9.1186 LP  0  0  0  0  0  0  0  0  0  0  0  0  # atno 4321 bound_to 2467

> <Gold.Score>
     Score     S(PLP)   S(hbond)     S(cho)   S(metal)  DE(clash)   DE(tors)     intcor
     37.66     -38.74       1.00       0.00       0.00       3.12       1.50       2.04

> <Gold.PLP.Fitness>
37.6623

> <Gold.PLP.PLP>
-38.7382

> <Gold.PLP.part.hbond>
-1.9335

> <Gold.PLP.part.metal>
0.0000

> <Gold.PLP.part.buried>
0.0926

> <Gold.PLP.part.nonpolar>
-37.7947

> <Gold.PLP.part.repulsive>
0.4697

> <Gold.PLP.ligand.clash>
3.1207

> <Gold.PLP.ligand.torsion>
1.4965

> <Gold.PLP.Chemscore.Hbond>
1.0000

> <Gold.PLP.Chemscore.CHOScore>
0.0000

> <Gold.PLP.Chemscore.Metal>
0.0000

> <Gold.Chemscore.Hbonds>
donor molecule, donor type, donor heavy atom, donor atom, acceptor molecule, acceptor atom, score
      P1  H  2305  2313       L1    14  1.00

> <Gold.PLP.Chemscore.Internal.Correction>
2.0378

