#       Name:                EN300-1071101_i001
#       Creating user name   fsindt
#       Creation time:       Wed Mar  1 13:03:52 2023


#       File generated by GOLD software.
#

@<TRIPOS>MOLECULE
EN300-1071101_i001|acide_1|mol2|8527|dock3
    41    41     1
SMALL
USER_CHARGES


@<TRIPOS>ATOM
      1 C1           1.6496 -22.5864  14.1012 C.3            1 <1>                0.0000
      2 O2           1.8979 -21.2160  13.7809 O.3            1 <1>                0.0000
      3 C3           1.4584 -20.8353  12.4756 C.3            1 <1>                0.0000
      4 C4           0.2978 -19.8458  12.5967 C.3            1 <1>                0.0000
      5 N5          -0.7507 -20.4237  13.4410 N.am           1 <1>                0.0000
      6 C6          -1.2838 -21.6214  13.1282 C.2            1 <1>                0.0000
      7 O7          -0.8947 -22.2218  12.1460 O.2            1 <1>                0.0000
      8 O8          -2.2474 -22.1526  13.9041 O.3            1 <1>                0.0000
      9 C9          -2.3170 -23.6015  13.9695 C.3            1 <1>                0.0000
     10 C10         -0.9297 -24.1651  14.2831 C.3            1 <1>                0.0000
     11 C11         -3.2965 -24.0159  15.0694 C.3            1 <1>                0.0000
     12 C12         -2.7984 -24.1502  12.6248 C.3            1 <1>                0.0000
     13 C13         -0.2616 -19.5577  11.2274 C.2            1 <1>                0.0000
     14 O14         -0.3544 -20.4537  10.4058 O.co2          1 <1>                0.0000
     15 O15         -0.6215 -18.4285  10.9412 O.co2          1 <1>               -1.0000
     16 C16          0.7928 -18.5645  13.2170 C.ar           1 <1>                0.0000
     17 C17          2.1459 -18.2823  13.2335 C.ar           1 <1>                0.0000
     18 C18          2.6000 -17.1072  13.8025 C.ar           1 <1>                0.0000
     19 C19          1.7009 -16.2141  14.3546 C.ar           1 <1>                0.0000
     20 C20          0.3477 -16.4959  14.3372 C.ar           1 <1>                0.0000
     21 C21         -0.1068 -17.6690  13.7644 C.ar           1 <1>                0.0000
     22 H22          2.0118 -22.7957  15.1076 H              1 <1>                0.0000
     23 H23          0.5785 -22.7826  14.0524 H              1 <1>                0.0000
     24 H24          2.1689 -23.2261  13.3876 H              1 <1>                0.0000
     25 H25          2.2818 -20.3656  11.9376 H              1 <1>                0.0000
     26 H26          1.1266 -21.7197  11.9317 H              1 <1>                0.0000
     27 H27         -0.5868 -23.7742  15.2411 H              1 <1>                0.0000
     28 H28         -0.9819 -25.2528  14.3322 H              1 <1>                0.0000
     29 H29         -0.2319 -23.8699  13.4995 H              1 <1>                0.0000
     30 H30         -4.2849 -23.6143  14.8460 H              1 <1>                0.0000
     31 H31         -3.3487 -25.1035  15.1186 H              1 <1>                0.0000
     32 H32         -2.9536 -23.6249  16.0274 H              1 <1>                0.0000
     33 H33         -2.1007 -23.8550  11.8412 H              1 <1>                0.0000
     34 H34         -2.8506 -25.2379  12.6739 H              1 <1>                0.0000
     35 H35         -3.7868 -23.7487  12.4014 H              1 <1>                0.0000
     36 H36          2.8485 -18.9801  12.8022 H              1 <1>                0.0000
     37 H37          3.6572 -16.8870  13.8160 H              1 <1>                0.0000
     38 H38          2.0557 -15.2963  14.7997 H              1 <1>                0.0000
     39 H39         -0.3548 -15.7982  14.7688 H              1 <1>                0.0000
     40 H40         -1.1640 -17.8892  13.7508 H              1 <1>                0.0000
     41 H41         -1.0613 -19.9444  14.2250 H              1 <1>                0.0000
@<TRIPOS>BOND
    1    1    2 1     
    2    1   22 1     
    3    1   23 1     
    4    1   24 1     
    5    2    3 1     
    6    3    4 1     
    7    3   25 1     
    8    3   26 1     
    9    4    5 1     
   10    4   13 1     
   11    4   16 1     
   12    5    6 am    
   13    5   41 1     
   14    6    7 2     
   15    6    8 1     
   16    8    9 1     
   17    9   10 1     
   18    9   11 1     
   19    9   12 1     
   20   10   27 1     
   21   10   28 1     
   22   10   29 1     
   23   11   30 1     
   24   11   31 1     
   25   11   32 1     
   26   12   33 1     
   27   12   34 1     
   28   12   35 1     
   29   13   14 ar    
   30   13   15 ar    
   31   16   17 ar    
   32   16   21 ar    
   33   17   18 ar    
   34   17   36 1     
   35   18   19 ar    
   36   18   37 1     
   37   19   20 ar    
   38   19   38 1     
   39   20   21 ar    
   40   20   39 1     
   41   21   40 1     
@<TRIPOS>SUBSTRUCTURE
      1 ****           1
@<TRIPOS>SET
DONOR_HYDROGENS      STATIC     ATOMS    <user>   **** ""
1 41
ATOM$RED        STATIC     ATOMS    COLORGROUP SYSTEM
1 41
@<TRIPOS>COMMENT
> <Gold.Version>
2022.2.0

> <Gold.Id.Protein>
3pbl|protein|mol2

> <Gold.Protein.RotatedTorsions>
[ 1303 1298 1297 1294 ] final -152.63 input  179.99 | X-H torsion
[ 2461 2456 2455 2452 ] final -164.60 input   30.03 | X-H torsion
[ 2515 2510 2509 2506 ] final -140.89 input  -89.99 | X-H torsion
[ 3721 3712 3711 3710 ] final   96.58 input -179.91 | X-H torsion
[ 3841 3832 3831 3830 ] final  -18.14 input -179.91 | X-H torsion
[ 3767 3762 3761 3758 ] final  165.97 input  -89.99 | X-H torsion
[ 2472 2467 2466 2463 ] final -137.82 input  -89.97 | X-H torsion

> <Gold.Protein.ActiveResidues>
 VAL82   VAL86   LEU89   PHE106  VAL107  ASP110  VAL111  MET112  CYS114  THR115 
 CYS181  SER182  ILE183  PHE188  VAL189  ILE190  SER192  SER193  SER196  TRP342 
 PHE345  PHE346  HIS349  VAL350  TYR365  THR369  GLY372  TYR373 

> <Gold.Protein.RotatedAtoms>
    4.6375   -8.5873    4.4182 H   0  0  0  0  0  0  0  0  0  0  0  0  # atno 1303 bound_to 1298
    1.2065   -9.2762    8.3751 H   0  0  0  0  0  0  0  0  0  0  0  0  # atno 2461 bound_to 2456
   -4.7910   -5.4638    9.4010 H   0  0  0  0  0  0  0  0  0  0  0  0  # atno 2472 bound_to 2467
    2.5933   -9.2572    5.3160 H   0  0  0  0  0  0  0  0  0  0  0  0  # atno 2515 bound_to 2510
   -2.8324  -17.5357   13.0694 H   0  0  0  0  0  0  0  0  0  0  0  0  # atno 3721 bound_to 3712
   -3.9878  -22.7063   11.4589 H   0  0  0  0  0  0  0  0  0  0  0  0  # atno 3767 bound_to 3762
    1.6130  -20.2725    9.4433 H   0  0  0  0  0  0  0  0  0  0  0  0  # atno 3841 bound_to 3832
    4.3810  -10.1430    4.8430 LP  0  0  0  0  0  0  0  0  0  0  0  0  # atno 4297 bound_to 1298
    3.3435   -9.3914    3.8304 LP  0  0  0  0  0  0  0  0  0  0  0  0  # atno 4298 bound_to 1298
    2.0576   -8.1527    7.5498 LP  0  0  0  0  0  0  0  0  0  0  0  0  # atno 4299 bound_to 2456
    0.4737   -8.3795    7.2234 LP  0  0  0  0  0  0  0  0  0  0  0  0  # atno 4300 bound_to 2456
    2.0311   -7.8527    5.9303 LP  0  0  0  0  0  0  0  0  0  0  0  0  # atno 4301 bound_to 2510
    2.6723   -7.8888    4.4289 LP  0  0  0  0  0  0  0  0  0  0  0  0  # atno 4302 bound_to 2510
   -2.7249  -17.9082   14.6275 LP  0  0  0  0  0  0  0  0  0  0  0  0  # atno 4306 bound_to 3712
   -3.5327  -16.5729   14.1467 LP  0  0  0  0  0  0  0  0  0  0  0  0  # atno 4307 bound_to 3712
    2.4186  -19.7441    8.1597 LP  0  0  0  0  0  0  0  0  0  0  0  0  # atno 4314 bound_to 3832
    2.9476  -21.0434    8.9955 LP  0  0  0  0  0  0  0  0  0  0  0  0  # atno 4315 bound_to 3832
   -4.7652  -23.1957   10.1087 LP  0  0  0  0  0  0  0  0  0  0  0  0  # atno 4318 bound_to 3762
   -5.3741  -21.9731   11.0037 LP  0  0  0  0  0  0  0  0  0  0  0  0  # atno 4319 bound_to 3762
   -5.2528   -4.9772    7.9123 LP  0  0  0  0  0  0  0  0  0  0  0  0  # atno 4320 bound_to 2467
   -3.6732   -4.9526    8.3260 LP  0  0  0  0  0  0  0  0  0  0  0  0  # atno 4321 bound_to 2467

> <Gold.Score>
     Score     S(PLP)   S(hbond)     S(cho)   S(metal)  DE(clash)   DE(tors)     intcor
     42.25     -43.03       0.65       0.00       0.00       0.00       2.50       2.28

> <Gold.PLP.Fitness>
42.2517

> <Gold.PLP.PLP>
-43.0334

> <Gold.PLP.part.hbond>
-1.0000

> <Gold.PLP.part.metal>
0.0000

> <Gold.PLP.part.buried>
-0.4058

> <Gold.PLP.part.nonpolar>
-42.8092

> <Gold.PLP.part.repulsive>
0.1114

> <Gold.PLP.ligand.clash>
0.0000

> <Gold.PLP.ligand.torsion>
2.5044

> <Gold.PLP.Chemscore.Hbond>
0.6477

> <Gold.PLP.Chemscore.CHOScore>
0.0000

> <Gold.PLP.Chemscore.Metal>
0.0000

> <Gold.Chemscore.Hbonds>
donor molecule, donor type, donor heavy atom, donor atom, acceptor molecule, acceptor atom, score
      P1  H  3832  3841       L1    14  0.65

> <Gold.PLP.Chemscore.Internal.Correction>
2.2842

