#       Name:                EN300-1071101_i001
#       Creating user name   fsindt
#       Creation time:       Wed Mar  1 13:04:17 2023


#       File generated by GOLD software.
#

@<TRIPOS>MOLECULE
EN300-1071101_i001|acide_1|mol2|8527|dock19
    41    41     1
SMALL
USER_CHARGES


@<TRIPOS>ATOM
      1 C1           2.3067 -16.7996  14.1857 C.3            1 <1>                0.0000
      2 O2           1.2197 -17.5894  14.6724 O.3            1 <1>                0.0000
      3 C3           1.3634 -18.9898  14.4274 C.3            1 <1>                0.0000
      4 C4           0.0402 -19.5549  13.9071 C.3            1 <1>                0.0000
      5 N5          -1.0486 -19.1490  14.7992 N.am           1 <1>                0.0000
      6 C6          -1.0042 -19.4721  16.1070 C.2            1 <1>                0.0000
      7 O7          -0.0611 -20.1000  16.5460 O.2            1 <1>                0.0000
      8 O8          -2.0049 -19.0990  16.9268 O.3            1 <1>                0.0000
      9 C9          -2.2813 -19.9594  18.0634 C.3            1 <1>                0.0000
     10 C10         -2.3773 -21.4118  17.5922 C.3            1 <1>                0.0000
     11 C11         -1.1526 -19.8291  19.0880 C.3            1 <1>                0.0000
     12 C12         -3.6054 -19.5436  18.7077 C.3            1 <1>                0.0000
     13 C13          0.1191 -21.0591  13.8629 C.2            1 <1>                0.0000
     14 O14          1.1490 -21.6254  14.1874 O.co2          1 <1>                0.0000
     15 O15         -0.8470 -21.7099  13.5028 O.co2          1 <1>               -1.0000
     16 C16         -0.2220 -19.0246  12.5210 C.ar           1 <1>                0.0000
     17 C17         -0.2798 -17.6609  12.3022 C.ar           1 <1>                0.0000
     18 C18         -0.5203 -17.1745  11.0308 C.ar           1 <1>                0.0000
     19 C19         -0.7027 -18.0518   9.9782 C.ar           1 <1>                0.0000
     20 C20         -0.6439 -19.4154  10.1969 C.ar           1 <1>                0.0000
     21 C21         -0.3991 -19.9018  11.4675 C.ar           1 <1>                0.0000
     22 H22          2.1220 -15.7492  14.4107 H              1 <1>                0.0000
     23 H23          3.2311 -17.1174  14.6679 H              1 <1>                0.0000
     24 H24          2.3962 -16.9300  13.1072 H              1 <1>                0.0000
     25 H25          2.1444 -19.1505  13.6843 H              1 <1>                0.0000
     26 H26          1.6346 -19.4949  15.3545 H              1 <1>                0.0000
     27 H27         -1.4340 -21.7079  17.1333 H              1 <1>                0.0000
     28 H28         -2.5848 -22.0577  18.4454 H              1 <1>                0.0000
     29 H29         -3.1814 -21.5045  16.8622 H              1 <1>                0.0000
     30 H30         -1.0843 -18.7943  19.4237 H              1 <1>                0.0000
     31 H31         -1.3601 -20.4750  19.9412 H              1 <1>                0.0000
     32 H32         -0.2093 -20.1252  18.6291 H              1 <1>                0.0000
     33 H33         -4.4095 -19.6364  17.9777 H              1 <1>                0.0000
     34 H34         -3.8129 -20.1895  19.5609 H              1 <1>                0.0000
     35 H35         -3.5370 -18.5089  19.0434 H              1 <1>                0.0000
     36 H36         -0.1374 -16.9754  13.1246 H              1 <1>                0.0000
     37 H37         -0.5662 -16.1091  10.8600 H              1 <1>                0.0000
     38 H38         -0.8913 -17.6717   8.9850 H              1 <1>                0.0000
     39 H39         -0.7866 -20.1008   9.3745 H              1 <1>                0.0000
     40 H40         -0.3532 -20.9672  11.6383 H              1 <1>                0.0000
     41 H41         -1.8015 -18.6477  14.4487 H              1 <1>                0.0000
@<TRIPOS>BOND
    1    1    2 1     
    2    1   22 1     
    3    1   23 1     
    4    1   24 1     
    5    2    3 1     
    6    3    4 1     
    7    3   25 1     
    8    3   26 1     
    9    4    5 1     
   10    4   13 1     
   11    4   16 1     
   12    5    6 am    
   13    5   41 1     
   14    6    7 2     
   15    6    8 1     
   16    8    9 1     
   17    9   10 1     
   18    9   11 1     
   19    9   12 1     
   20   10   27 1     
   21   10   28 1     
   22   10   29 1     
   23   11   30 1     
   24   11   31 1     
   25   11   32 1     
   26   12   33 1     
   27   12   34 1     
   28   12   35 1     
   29   13   14 ar    
   30   13   15 ar    
   31   16   17 ar    
   32   16   21 ar    
   33   17   18 ar    
   34   17   36 1     
   35   18   19 ar    
   36   18   37 1     
   37   19   20 ar    
   38   19   38 1     
   39   20   21 ar    
   40   20   39 1     
   41   21   40 1     
@<TRIPOS>SUBSTRUCTURE
      1 ****           1
@<TRIPOS>SET
DONOR_HYDROGENS      STATIC     ATOMS    <user>   **** ""
1 41
ATOM$RED        STATIC     ATOMS    COLORGROUP SYSTEM
1 41
@<TRIPOS>COMMENT
> <Gold.Version>
2022.2.0

> <Gold.Id.Protein>
3pbl|protein|mol2

> <Gold.Protein.RotatedTorsions>
[ 1303 1298 1297 1294 ] final  106.91 input  179.99 | X-H torsion
[ 2461 2456 2455 2452 ] final  149.49 input   30.03 | X-H torsion
[ 2515 2510 2509 2506 ] final  124.79 input  -89.99 | X-H torsion
[ 3721 3712 3711 3710 ] final  166.13 input -179.91 | X-H torsion
[ 3841 3832 3831 3830 ] final  109.93 input -179.91 | X-H torsion
[ 3767 3762 3761 3758 ] final  -26.90 input  -89.99 | X-H torsion
[ 2472 2467 2466 2463 ] final   28.12 input  -89.97 | X-H torsion

> <Gold.Protein.ActiveResidues>
 VAL82   VAL86   LEU89   PHE106  VAL107  ASP110  VAL111  MET112  CYS114  THR115 
 CYS181  SER182  ILE183  PHE188  VAL189  ILE190  SER192  SER193  SER196  TRP342 
 PHE345  PHE346  HIS349  VAL350  TYR365  THR369  GLY372  TYR373 

> <Gold.Protein.RotatedAtoms>
    4.6156   -9.9431    4.9291 H   0  0  0  0  0  0  0  0  0  0  0  0  # atno 1303 bound_to 1298
    1.8755   -8.9772    8.3100 H   0  0  0  0  0  0  0  0  0  0  0  0  # atno 2461 bound_to 2456
   -4.1386   -4.8060    7.7750 H   0  0  0  0  0  0  0  0  0  0  0  0  # atno 2472 bound_to 2467
    2.0512   -8.2427    6.0823 H   0  0  0  0  0  0  0  0  0  0  0  0  # atno 2515 bound_to 2510
   -3.2807  -16.7070   13.3674 H   0  0  0  0  0  0  0  0  0  0  0  0  # atno 3721 bound_to 3712
   -5.4901  -22.3879   10.3848 H   0  0  0  0  0  0  0  0  0  0  0  0  # atno 3767 bound_to 3762
    3.0209  -20.8081    9.0511 H   0  0  0  0  0  0  0  0  0  0  0  0  # atno 3841 bound_to 3832
    3.3387   -9.6906    3.9432 LP  0  0  0  0  0  0  0  0  0  0  0  0  # atno 4297 bound_to 1298
    4.4077   -8.4874    4.2191 LP  0  0  0  0  0  0  0  0  0  0  0  0  # atno 4298 bound_to 1298
    1.5067   -7.9179    7.1229 LP  0  0  0  0  0  0  0  0  0  0  0  0  # atno 4299 bound_to 2456
    0.3557   -8.9132    7.7155 LP  0  0  0  0  0  0  0  0  0  0  0  0  # atno 4300 bound_to 2456
    2.5080   -7.5812    4.6612 LP  0  0  0  0  0  0  0  0  0  0  0  0  # atno 4301 bound_to 2510
    2.7377   -9.1752    4.9313 LP  0  0  0  0  0  0  0  0  0  0  0  0  # atno 4302 bound_to 2510
   -2.6654  -18.1760   13.5703 LP  0  0  0  0  0  0  0  0  0  0  0  0  # atno 4306 bound_to 3712
   -3.0746  -17.2617   14.8599 LP  0  0  0  0  0  0  0  0  0  0  0  0  # atno 4307 bound_to 3712
    1.4877  -20.4881    9.4022 LP  0  0  0  0  0  0  0  0  0  0  0  0  # atno 4314 bound_to 3832
    2.2520  -19.6807    8.2061 LP  0  0  0  0  0  0  0  0  0  0  0  0  # atno 4315 bound_to 3832
   -4.4766  -22.1633   11.6454 LP  0  0  0  0  0  0  0  0  0  0  0  0  # atno 4318 bound_to 3762
   -4.1609  -23.3237   10.5407 LP  0  0  0  0  0  0  0  0  0  0  0  0  # atno 4319 bound_to 3762
   -4.0690   -5.3516    9.3125 LP  0  0  0  0  0  0  0  0  0  0  0  0  # atno 4320 bound_to 2467
   -5.5092   -5.2358    8.5515 LP  0  0  0  0  0  0  0  0  0  0  0  0  # atno 4321 bound_to 2467

> <Gold.Score>
     Score     S(PLP)   S(hbond)     S(cho)   S(metal)  DE(clash)   DE(tors)     intcor
     39.17     -37.34       1.00       0.00       0.00       1.43       0.89       2.04

> <Gold.PLP.Fitness>
39.1723

> <Gold.PLP.PLP>
-37.3427

> <Gold.PLP.part.hbond>
-1.0000

> <Gold.PLP.part.metal>
0.0000

> <Gold.PLP.part.buried>
-6.6125

> <Gold.PLP.part.nonpolar>
-29.8347

> <Gold.PLP.part.repulsive>
0.1446

> <Gold.PLP.ligand.clash>
1.4308

> <Gold.PLP.ligand.torsion>
0.8887

> <Gold.PLP.Chemscore.Hbond>
1.0000

> <Gold.PLP.Chemscore.CHOScore>
0.0000

> <Gold.PLP.Chemscore.Metal>
0.0000

> <Gold.Chemscore.Hbonds>
donor molecule, donor type, donor heavy atom, donor atom, acceptor molecule, acceptor atom, score
      L1  H     5    41       P1  3712  1.00

> <Gold.PLP.Chemscore.Internal.Correction>
2.0378

