#       Name:                EN300-1071101_i001
#       Creating user name   fsindt
#       Creation time:       Wed Mar  1 13:03:54 2023


#       File generated by GOLD software.
#

@<TRIPOS>MOLECULE
EN300-1071101_i001|acide_1|mol2|8527|dock5
    41    41     1
SMALL
USER_CHARGES


@<TRIPOS>ATOM
      1 C1           1.4016 -22.9268  14.1081 C.3            1 <1>                0.0000
      2 O2           1.8052 -21.5814  13.8454 O.3            1 <1>                0.0000
      3 C3           1.2624 -21.0363  12.6412 C.3            1 <1>                0.0000
      4 C4           0.2687 -19.9255  12.9869 C.3            1 <1>                0.0000
      5 N5          -0.6465 -20.3960  14.0296 N.am           1 <1>                0.0000
      6 C6          -1.3635 -21.5213  13.8393 C.2            1 <1>                0.0000
      7 O7          -1.2509 -22.1454  12.8028 O.2            1 <1>                0.0000
      8 O8          -2.2046 -21.9537  14.7976 O.3            1 <1>                0.0000
      9 C9          -2.5339 -23.3679  14.7965 C.3            1 <1>                0.0000
     10 C10         -3.3075 -23.7124  16.0707 C.3            1 <1>                0.0000
     11 C11         -3.3954 -23.6899  13.5739 C.3            1 <1>                0.0000
     12 C12         -1.2455 -24.1915  14.7436 C.3            1 <1>                0.0000
     13 C13         -0.5191 -19.5555  11.7567 C.2            1 <1>                0.0000
     14 O14         -1.4942 -18.8299  11.8525 O.co2          1 <1>                0.0000
     15 O15         -0.1814 -19.9818  10.6655 O.co2          1 <1>               -1.0000
     16 C16          1.0192 -18.7172  13.4851 C.ar           1 <1>                0.0000
     17 C17          1.6024 -18.7342  14.7383 C.ar           1 <1>                0.0000
     18 C18          2.2907 -17.6259  15.1952 C.ar           1 <1>                0.0000
     19 C19          2.3961 -16.5009  14.3990 C.ar           1 <1>                0.0000
     20 C20          1.8136 -16.4844  13.1455 C.ar           1 <1>                0.0000
     21 C21          1.1289 -17.5942  12.6867 C.ar           1 <1>                0.0000
     22 H22          1.8555 -23.2672  15.0388 H              1 <1>                0.0000
     23 H23          0.3160 -22.9698  14.1963 H              1 <1>                0.0000
     24 H24          1.7252 -23.5697  13.2895 H              1 <1>                0.0000
     25 H25          2.0682 -20.6264  12.0323 H              1 <1>                0.0000
     26 H26          0.7504 -21.8217  12.0854 H              1 <1>                0.0000
     27 H27         -4.2253 -23.1257  16.1083 H              1 <1>                0.0000
     28 H28         -3.5547 -24.7741  16.0699 H              1 <1>                0.0000
     29 H29         -2.6936 -23.4829  16.9417 H              1 <1>                0.0000
     30 H30         -2.8443 -23.4445  12.6661 H              1 <1>                0.0000
     31 H31         -3.6427 -24.7515  13.5730 H              1 <1>                0.0000
     32 H32         -4.3133 -23.1032  13.6115 H              1 <1>                0.0000
     33 H33         -0.6316 -23.9621  15.6146 H              1 <1>                0.0000
     34 H34         -1.4927 -25.2532  14.7428 H              1 <1>                0.0000
     35 H35         -0.6944 -23.9461  13.8358 H              1 <1>                0.0000
     36 H36          1.5201 -19.6131  15.3605 H              1 <1>                0.0000
     37 H37          2.7459 -17.6389  16.1746 H              1 <1>                0.0000
     38 H38          2.9333 -15.6348  14.7563 H              1 <1>                0.0000
     39 H39          1.8957 -15.6052  12.5235 H              1 <1>                0.0000
     40 H40          0.6739 -17.5812  11.7074 H              1 <1>                0.0000
     41 H41         -0.7365 -19.8977  14.8570 H              1 <1>                0.0000
@<TRIPOS>BOND
    1    1    2 1     
    2    1   22 1     
    3    1   23 1     
    4    1   24 1     
    5    2    3 1     
    6    3    4 1     
    7    3   25 1     
    8    3   26 1     
    9    4    5 1     
   10    4   13 1     
   11    4   16 1     
   12    5    6 am    
   13    5   41 1     
   14    6    7 2     
   15    6    8 1     
   16    8    9 1     
   17    9   10 1     
   18    9   11 1     
   19    9   12 1     
   20   10   27 1     
   21   10   28 1     
   22   10   29 1     
   23   11   30 1     
   24   11   31 1     
   25   11   32 1     
   26   12   33 1     
   27   12   34 1     
   28   12   35 1     
   29   13   14 ar    
   30   13   15 ar    
   31   16   17 ar    
   32   16   21 ar    
   33   17   18 ar    
   34   17   36 1     
   35   18   19 ar    
   36   18   37 1     
   37   19   20 ar    
   38   19   38 1     
   39   20   21 ar    
   40   20   39 1     
   41   21   40 1     
@<TRIPOS>SUBSTRUCTURE
      1 ****           1
@<TRIPOS>SET
DONOR_HYDROGENS      STATIC     ATOMS    <user>   **** ""
1 41
ATOM$RED        STATIC     ATOMS    COLORGROUP SYSTEM
1 41
@<TRIPOS>COMMENT
> <Gold.Version>
2022.2.0

> <Gold.Id.Protein>
3pbl|protein|mol2

> <Gold.Protein.RotatedTorsions>
[ 1303 1298 1297 1294 ] final  -47.85 input  179.99 | X-H torsion
[ 2461 2456 2455 2452 ] final  141.95 input   30.03 | X-H torsion
[ 2515 2510 2509 2506 ] final  168.05 input  -89.99 | X-H torsion
[ 3721 3712 3711 3710 ] final   74.69 input -179.91 | X-H torsion
[ 3841 3832 3831 3830 ] final  -18.31 input -179.91 | X-H torsion
[ 3767 3762 3761 3758 ] final  -89.75 input  -89.99 | X-H torsion
[ 2472 2467 2466 2463 ] final   83.25 input  -89.97 | X-H torsion

> <Gold.Protein.ActiveResidues>
 VAL82   VAL86   LEU89   PHE106  VAL107  ASP110  VAL111  MET112  CYS114  THR115 
 CYS181  SER182  ILE183  PHE188  VAL189  ILE190  SER192  SER193  SER196  TRP342 
 PHE345  PHE346  HIS349  VAL350  TYR365  THR369  GLY372  TYR373 

> <Gold.Protein.RotatedAtoms>
    3.4097   -9.1547    3.7851 H   0  0  0  0  0  0  0  0  0  0  0  0  # atno 1303 bound_to 1298
    1.9573   -8.8986    8.2600 H   0  0  0  0  0  0  0  0  0  0  0  0  # atno 2461 bound_to 2456
   -5.0064   -4.8906    7.7448 H   0  0  0  0  0  0  0  0  0  0  0  0  # atno 2472 bound_to 2467
    2.2456   -8.8977    5.9562 H   0  0  0  0  0  0  0  0  0  0  0  0  # atno 2515 bound_to 2510
   -2.6779  -17.7814   13.2239 H   0  0  0  0  0  0  0  0  0  0  0  0  # atno 3721 bound_to 3712
   -5.2275  -21.9204   11.2091 H   0  0  0  0  0  0  0  0  0  0  0  0  # atno 3767 bound_to 3762
    1.6121  -20.2705    9.4421 H   0  0  0  0  0  0  0  0  0  0  0  0  # atno 3841 bound_to 3832
    4.7771   -8.7289    4.5695 LP  0  0  0  0  0  0  0  0  0  0  0  0  # atno 4297 bound_to 1298
    4.1757  -10.2378    4.7372 LP  0  0  0  0  0  0  0  0  0  0  0  0  # atno 4298 bound_to 1298
    1.3894   -7.9189    7.0830 LP  0  0  0  0  0  0  0  0  0  0  0  0  # atno 4299 bound_to 2456
    0.3913   -8.9907    7.8053 LP  0  0  0  0  0  0  0  0  0  0  0  0  # atno 4300 bound_to 2456
    2.2157   -7.4165    5.2699 LP  0  0  0  0  0  0  0  0  0  0  0  0  # atno 4301 bound_to 2510
    2.8355   -8.6847    4.4488 LP  0  0  0  0  0  0  0  0  0  0  0  0  # atno 4302 bound_to 2510
   -2.8684  -17.6291   14.8108 LP  0  0  0  0  0  0  0  0  0  0  0  0  # atno 4306 bound_to 3712
   -3.5675  -16.5683   13.7850 LP  0  0  0  0  0  0  0  0  0  0  0  0  # atno 4307 bound_to 3712
    2.4211  -19.7452    8.1592 LP  0  0  0  0  0  0  0  0  0  0  0  0  # atno 4314 bound_to 3832
    2.9460  -21.0446    8.9975 LP  0  0  0  0  0  0  0  0  0  0  0  0  # atno 4315 bound_to 3832
   -3.9201  -22.8949   11.2967 LP  0  0  0  0  0  0  0  0  0  0  0  0  # atno 4318 bound_to 3762
   -4.9800  -23.0595   10.0654 LP  0  0  0  0  0  0  0  0  0  0  0  0  # atno 4319 bound_to 3762
   -3.6354   -5.0532    8.6167 LP  0  0  0  0  0  0  0  0  0  0  0  0  # atno 4320 bound_to 2467
   -5.0751   -5.4497    9.2775 LP  0  0  0  0  0  0  0  0  0  0  0  0  # atno 4321 bound_to 2467

> <Gold.Score>
     Score     S(PLP)   S(hbond)     S(cho)   S(metal)  DE(clash)   DE(tors)     intcor
     43.76     -40.55       1.78       0.00       0.00       0.89       1.64       2.04

> <Gold.PLP.Fitness>
43.7608

> <Gold.PLP.PLP>
-40.5465

> <Gold.PLP.part.hbond>
-1.8979

> <Gold.PLP.part.metal>
0.0000

> <Gold.PLP.part.buried>
-2.7232

> <Gold.PLP.part.nonpolar>
-37.3937

> <Gold.PLP.part.repulsive>
0.0648

> <Gold.PLP.ligand.clash>
0.8900

> <Gold.PLP.ligand.torsion>
1.6367

> <Gold.PLP.Chemscore.Hbond>
1.7800

> <Gold.PLP.Chemscore.CHOScore>
0.0000

> <Gold.PLP.Chemscore.Metal>
0.0000

> <Gold.Chemscore.Hbonds>
donor molecule, donor type, donor heavy atom, donor atom, acceptor molecule, acceptor atom, score
      P1  H  3712  3721       L1    14  1.00
      P1  H  3832  3841       L1    15  0.78

> <Gold.PLP.Chemscore.Internal.Correction>
2.0378

