#       Name:                EN300-1071101_i001
#       Creating user name   fsindt
#       Creation time:       Wed Mar  1 13:04:01 2023


#       File generated by GOLD software.
#

@<TRIPOS>MOLECULE
EN300-1071101_i001|acide_1|mol2|8527|dock10
    41    41     1
SMALL
USER_CHARGES


@<TRIPOS>ATOM
      1 C1           3.9218 -17.9173  12.5705 C.3            1 <1>                0.0000
      2 O2           3.1283 -16.7290  12.5962 O.3            1 <1>                0.0000
      3 C3           2.2748 -16.6246  13.7375 C.3            1 <1>                0.0000
      4 C4           0.9631 -17.3627  13.4626 C.3            1 <1>                0.0000
      5 N5           0.5703 -17.1569  12.0664 N.am           1 <1>                0.0000
      6 C6           0.3396 -15.9106  11.6080 C.2            1 <1>                0.0000
      7 O7           0.4574 -14.9578  12.3528 O.2            1 <1>                0.0000
      8 O8          -0.0214 -15.7215  10.3248 O.3            1 <1>                0.0000
      9 C9           0.3764 -14.4698   9.7057 C.3            1 <1>                0.0000
     10 C10          1.8709 -14.2385   9.9376 C.3            1 <1>                0.0000
     11 C11          0.0972 -14.5327   8.2028 C.3            1 <1>                0.0000
     12 C12         -0.4197 -13.3190  10.3245 C.3            1 <1>                0.0000
     13 C13         -0.1138 -16.8286  14.3714 C.2            1 <1>                0.0000
     14 O14         -0.9928 -17.5701  14.7766 O.co2          1 <1>                0.0000
     15 O15         -0.1061 -15.6549  14.7016 O.co2          1 <1>               -1.0000
     16 C16          1.1523 -18.8356  13.7194 C.ar           1 <1>                0.0000
     17 C17          1.4318 -19.2843  14.9967 C.ar           1 <1>                0.0000
     18 C18          1.6053 -20.6353  15.2321 C.ar           1 <1>                0.0000
     19 C19          1.4990 -21.5377  14.1904 C.ar           1 <1>                0.0000
     20 C20          1.2186 -21.0891  12.9133 C.ar           1 <1>                0.0000
     21 C21          1.0408 -19.7385  12.6786 C.ar           1 <1>                0.0000
     22 H22          4.5413 -17.9211  11.6738 H              1 <1>                0.0000
     23 H23          4.5602 -17.9469  13.4534 H              1 <1>                0.0000
     24 H24          3.2689 -18.7901  12.5648 H              1 <1>                0.0000
     25 H25          2.7679 -17.0695  14.6019 H              1 <1>                0.0000
     26 H26          2.0652 -15.5742  13.9396 H              1 <1>                0.0000
     27 H27          2.4381 -15.0583   9.4967 H              1 <1>                0.0000
     28 H28          2.1697 -13.2988   9.4729 H              1 <1>                0.0000
     29 H29          2.0698 -14.1937  11.0083 H              1 <1>                0.0000
     30 H30         -0.9676 -14.6974   8.0376 H              1 <1>                0.0000
     31 H31          0.3959 -13.5931   7.7380 H              1 <1>                0.0000
     32 H32          0.6643 -15.3525   7.7619 H              1 <1>                0.0000
     33 H33         -0.2208 -13.2742  11.3953 H              1 <1>                0.0000
     34 H34         -0.1210 -12.3793   9.8599 H              1 <1>                0.0000
     35 H35         -1.4845 -13.4838  10.1594 H              1 <1>                0.0000
     36 H36          1.5149 -18.5792  15.8106 H              1 <1>                0.0000
     37 H37          1.8244 -20.9857  16.2300 H              1 <1>                0.0000
     38 H38          1.6353 -22.5932  14.3743 H              1 <1>                0.0000
     39 H39          1.1359 -21.7942  12.0994 H              1 <1>                0.0000
     40 H40          0.8217 -19.3881  11.6808 H              1 <1>                0.0000
     41 H41          0.4762 -17.9176  11.4718 H              1 <1>                0.0000
@<TRIPOS>BOND
    1    1    2 1     
    2    1   22 1     
    3    1   23 1     
    4    1   24 1     
    5    2    3 1     
    6    3    4 1     
    7    3   25 1     
    8    3   26 1     
    9    4    5 1     
   10    4   13 1     
   11    4   16 1     
   12    5    6 am    
   13    5   41 1     
   14    6    7 2     
   15    6    8 1     
   16    8    9 1     
   17    9   10 1     
   18    9   11 1     
   19    9   12 1     
   20   10   27 1     
   21   10   28 1     
   22   10   29 1     
   23   11   30 1     
   24   11   31 1     
   25   11   32 1     
   26   12   33 1     
   27   12   34 1     
   28   12   35 1     
   29   13   14 ar    
   30   13   15 ar    
   31   16   17 ar    
   32   16   21 ar    
   33   17   18 ar    
   34   17   36 1     
   35   18   19 ar    
   36   18   37 1     
   37   19   20 ar    
   38   19   38 1     
   39   20   21 ar    
   40   20   39 1     
   41   21   40 1     
@<TRIPOS>SUBSTRUCTURE
      1 ****           1
@<TRIPOS>SET
DONOR_HYDROGENS      STATIC     ATOMS    <user>   **** ""
1 41
ATOM$RED        STATIC     ATOMS    COLORGROUP SYSTEM
1 41
@<TRIPOS>COMMENT
> <Gold.Version>
2022.2.0

> <Gold.Id.Protein>
3pbl|protein|mol2

> <Gold.Protein.RotatedTorsions>
[ 1303 1298 1297 1294 ] final   79.77 input  179.99 | X-H torsion
[ 2461 2456 2455 2452 ] final  -89.03 input   30.03 | X-H torsion
[ 2515 2510 2509 2506 ] final   76.98 input  -89.99 | X-H torsion
[ 3721 3712 3711 3710 ] final   -8.15 input -179.91 | X-H torsion
[ 3841 3832 3831 3830 ] final  -14.19 input -179.91 | X-H torsion
[ 3767 3762 3761 3758 ] final  -68.17 input  -89.99 | X-H torsion
[ 2472 2467 2466 2463 ] final  116.10 input  -89.97 | X-H torsion

> <Gold.Protein.ActiveResidues>
 VAL82   VAL86   LEU89   PHE106  VAL107  ASP110  VAL111  MET112  CYS114  THR115 
 CYS181  SER182  ILE183  PHE188  VAL189  ILE190  SER192  SER193  SER196  TRP342 
 PHE345  PHE346  HIS349  VAL350  TYR365  THR369  GLY372  TYR373 

> <Gold.Protein.RotatedAtoms>
    4.2795  -10.1972    4.7942 H   0  0  0  0  0  0  0  0  0  0  0  0  # atno 1303 bound_to 1298
    0.3502   -8.8974    7.6978 H   0  0  0  0  0  0  0  0  0  0  0  0  # atno 2461 bound_to 2456
   -5.3879   -5.0533    8.0799 H   0  0  0  0  0  0  0  0  0  0  0  0  # atno 2472 bound_to 2467
    2.0781   -7.5908    5.6853 H   0  0  0  0  0  0  0  0  0  0  0  0  # atno 2515 bound_to 2510
   -2.5082  -17.9027   14.3509 H   0  0  0  0  0  0  0  0  0  0  0  0  # atno 3721 bound_to 3712
   -5.4163  -22.0047   10.9228 H   0  0  0  0  0  0  0  0  0  0  0  0  # atno 3767 bound_to 3762
    1.6340  -20.3200    9.4728 H   0  0  0  0  0  0  0  0  0  0  0  0  # atno 3841 bound_to 3832
    3.3700   -9.2722    3.8025 LP  0  0  0  0  0  0  0  0  0  0  0  0  # atno 4297 bound_to 1298
    4.7126   -8.6516    4.4947 LP  0  0  0  0  0  0  0  0  0  0  0  0  # atno 4298 bound_to 1298
    1.8580   -8.9919    8.3184 LP  0  0  0  0  0  0  0  0  0  0  0  0  # atno 4299 bound_to 2456
    1.5293   -7.9190    7.1320 LP  0  0  0  0  0  0  0  0  0  0  0  0  # atno 4300 bound_to 2456
    2.7769   -8.2271    4.3539 LP  0  0  0  0  0  0  0  0  0  0  0  0  # atno 4301 bound_to 2510
    2.4419   -9.1817    5.6358 LP  0  0  0  0  0  0  0  0  0  0  0  0  # atno 4302 bound_to 2510
   -3.4842  -16.6278   14.3385 LP  0  0  0  0  0  0  0  0  0  0  0  0  # atno 4306 bound_to 3712
   -3.1477  -17.4296   12.9562 LP  0  0  0  0  0  0  0  0  0  0  0  0  # atno 4307 bound_to 3712
    2.3593  -19.7185    8.1735 LP  0  0  0  0  0  0  0  0  0  0  0  0  # atno 4314 bound_to 3832
    2.9825  -21.0142    8.9476 LP  0  0  0  0  0  0  0  0  0  0  0  0  # atno 4315 bound_to 3832
   -4.0281  -22.6342   11.5088 LP  0  0  0  0  0  0  0  0  0  0  0  0  # atno 4318 bound_to 3762
   -4.6833  -23.2359   10.1394 LP  0  0  0  0  0  0  0  0  0  0  0  0  # atno 4319 bound_to 3762
   -3.7638   -4.8903    8.1256 LP  0  0  0  0  0  0  0  0  0  0  0  0  # atno 4320 bound_to 2467
   -4.5654   -5.4499    9.4336 LP  0  0  0  0  0  0  0  0  0  0  0  0  # atno 4321 bound_to 2467

> <Gold.Score>
     Score     S(PLP)   S(hbond)     S(cho)   S(metal)  DE(clash)   DE(tors)     intcor
     42.69     -41.14       1.90       0.00       0.00       2.00       2.09       2.04

> <Gold.PLP.Fitness>
42.6906

> <Gold.PLP.PLP>
-41.1418

> <Gold.PLP.part.hbond>
-1.9337

> <Gold.PLP.part.metal>
0.0000

> <Gold.PLP.part.buried>
-3.5737

> <Gold.PLP.part.nonpolar>
-37.1435

> <Gold.PLP.part.repulsive>
0.5779

> <Gold.PLP.ligand.clash>
1.9958

> <Gold.PLP.ligand.torsion>
2.0906

> <Gold.PLP.Chemscore.Hbond>
1.8960

> <Gold.PLP.Chemscore.CHOScore>
0.0000

> <Gold.PLP.Chemscore.Metal>
0.0000

> <Gold.Chemscore.Hbonds>
donor molecule, donor type, donor heavy atom, donor atom, acceptor molecule, acceptor atom, score
      P1  H  2305  2313       L1    15  1.00
      P1  H  3712  3721       L1    14  0.90

> <Gold.PLP.Chemscore.Internal.Correction>
2.0378

