#       Name:                EN300-1071101_i001
#       Creating user name   fsindt
#       Creation time:       Wed Mar  1 13:04:19 2023


#       File generated by GOLD software.
#

@<TRIPOS>MOLECULE
EN300-1071101_i001|acide_1|mol2|8527|dock20
    41    41     1
SMALL
USER_CHARGES


@<TRIPOS>ATOM
      1 C1           1.9254 -17.0973  14.1491 C.3            1 <1>                0.0000
      2 O2           1.5031 -18.0108  13.1346 O.3            1 <1>                0.0000
      3 C3           0.2704 -18.6727  13.4249 C.3            1 <1>                0.0000
      4 C4          -0.0466 -19.6720  12.3106 C.3            1 <1>                0.0000
      5 N5          -1.1887 -20.4994  12.7070 N.am           1 <1>                0.0000
      6 C6          -1.1447 -21.2026  13.8561 C.2            1 <1>                0.0000
      7 O7          -0.1579 -21.1501  14.5631 O.2            1 <1>                0.0000
      8 O8          -2.1944 -21.9630  14.2204 O.3            1 <1>                0.0000
      9 C9          -1.9076 -23.1479  15.0092 C.3            1 <1>                0.0000
     10 C10         -1.4921 -22.7320  16.4218 C.3            1 <1>                0.0000
     11 C11         -3.1581 -24.0263  15.0832 C.3            1 <1>                0.0000
     12 C12         -0.7703 -23.9340  14.3538 C.3            1 <1>                0.0000
     13 C13          1.1522 -20.5527  12.0696 C.2            1 <1>                0.0000
     14 O14          2.1614 -20.0854  11.5699 O.co2          1 <1>                0.0000
     15 O15          1.1130 -21.7326  12.3744 O.co2          1 <1>               -1.0000
     16 C16         -0.3830 -18.9242  11.0461 C.ar           1 <1>                0.0000
     17 C17         -0.6966 -19.6207   9.8939 C.ar           1 <1>                0.0000
     18 C18         -1.0051 -18.9349   8.7341 C.ar           1 <1>                0.0000
     19 C19         -1.0004 -17.5526   8.7265 C.ar           1 <1>                0.0000
     20 C20         -0.6877 -16.8561   9.8788 C.ar           1 <1>                0.0000
     21 C21         -0.3834 -17.5419  11.0399 C.ar           1 <1>                0.0000
     22 H22          2.8679 -16.6364  13.8537 H              1 <1>                0.0000
     23 H23          1.1682 -16.3242  14.2799 H              1 <1>                0.0000
     24 H24          2.0620 -17.6344  15.0877 H              1 <1>                0.0000
     25 H25          0.3569 -19.2019  14.3739 H              1 <1>                0.0000
     26 H26         -0.5305 -17.9363  13.4912 H              1 <1>                0.0000
     27 H27         -2.3024 -22.1720  16.8887 H              1 <1>                0.0000
     28 H28         -1.2768 -23.6215  17.0139 H              1 <1>                0.0000
     29 H29         -0.6013 -22.1062  16.3690 H              1 <1>                0.0000
     30 H30         -3.4540 -24.3226  14.0769 H              1 <1>                0.0000
     31 H31         -2.9428 -24.9157  15.6754 H              1 <1>                0.0000
     32 H32         -3.9683 -23.4663  15.5501 H              1 <1>                0.0000
     33 H33          0.1206 -23.3082  14.3010 H              1 <1>                0.0000
     34 H34         -0.5550 -24.8235  14.9460 H              1 <1>                0.0000
     35 H35         -1.0663 -24.2303  13.3475 H              1 <1>                0.0000
     36 H36         -0.7003 -20.7007   9.8998 H              1 <1>                0.0000
     37 H37         -1.2495 -19.4790   7.8337 H              1 <1>                0.0000
     38 H38         -1.2407 -17.0167   7.8201 H              1 <1>                0.0000
     39 H39         -0.6837 -15.7761   9.8728 H              1 <1>                0.0000
     40 H40         -0.1391 -16.9978  11.9402 H              1 <1>                0.0000
     41 H41         -1.9765 -20.5414  12.1426 H              1 <1>                0.0000
@<TRIPOS>BOND
    1    1    2 1     
    2    1   22 1     
    3    1   23 1     
    4    1   24 1     
    5    2    3 1     
    6    3    4 1     
    7    3   25 1     
    8    3   26 1     
    9    4    5 1     
   10    4   13 1     
   11    4   16 1     
   12    5    6 am    
   13    5   41 1     
   14    6    7 2     
   15    6    8 1     
   16    8    9 1     
   17    9   10 1     
   18    9   11 1     
   19    9   12 1     
   20   10   27 1     
   21   10   28 1     
   22   10   29 1     
   23   11   30 1     
   24   11   31 1     
   25   11   32 1     
   26   12   33 1     
   27   12   34 1     
   28   12   35 1     
   29   13   14 ar    
   30   13   15 ar    
   31   16   17 ar    
   32   16   21 ar    
   33   17   18 ar    
   34   17   36 1     
   35   18   19 ar    
   36   18   37 1     
   37   19   20 ar    
   38   19   38 1     
   39   20   21 ar    
   40   20   39 1     
   41   21   40 1     
@<TRIPOS>SUBSTRUCTURE
      1 ****           1
@<TRIPOS>SET
DONOR_HYDROGENS      STATIC     ATOMS    <user>   **** ""
1 41
ATOM$RED        STATIC     ATOMS    COLORGROUP SYSTEM
1 41
@<TRIPOS>COMMENT
> <Gold.Version>
2022.2.0

> <Gold.Id.Protein>
3pbl|protein|mol2

> <Gold.Protein.RotatedTorsions>
[ 1303 1298 1297 1294 ] final   56.63 input  179.99 | X-H torsion
[ 2461 2456 2455 2452 ] final   21.75 input   30.03 | X-H torsion
[ 2515 2510 2509 2506 ] final -106.86 input  -89.99 | X-H torsion
[ 3721 3712 3711 3710 ] final  178.81 input -179.91 | X-H torsion
[ 3841 3832 3831 3830 ] final   14.23 input -179.91 | X-H torsion
[ 3767 3762 3761 3758 ] final  172.37 input  -89.99 | X-H torsion
[ 2472 2467 2466 2463 ] final  -13.75 input  -89.97 | X-H torsion

> <Gold.Protein.ActiveResidues>
 VAL82   VAL86   LEU89   PHE106  VAL107  ASP110  VAL111  MET112  CYS114  THR115 
 CYS181  SER182  ILE183  PHE188  VAL189  ILE190  SER192  SER193  SER196  TRP342 
 PHE345  PHE346  HIS349  VAL350  TYR365  THR369  GLY372  TYR373 

> <Gold.Protein.RotatedAtoms>
    3.9622  -10.2718    4.6026 H   0  0  0  0  0  0  0  0  0  0  0  0  # atno 1303 bound_to 1298
    1.3863   -7.9189    7.0820 H   0  0  0  0  0  0  0  0  0  0  0  0  # atno 2461 bound_to 2456
   -3.6943   -4.9338    8.2652 H   0  0  0  0  0  0  0  0  0  0  0  0  # atno 2472 bound_to 2467
    2.7728   -9.1106    4.8156 H   0  0  0  0  0  0  0  0  0  0  0  0  # atno 2515 bound_to 2510
   -3.3192  -16.6146   13.5303 H   0  0  0  0  0  0  0  0  0  0  0  0  # atno 3721 bound_to 3712
   -4.0315  -22.6270   11.5128 H   0  0  0  0  0  0  0  0  0  0  0  0  # atno 3767 bound_to 3762
    1.8772  -20.6406    9.6093 H   0  0  0  0  0  0  0  0  0  0  0  0  # atno 3841 bound_to 3832
    3.5286   -8.9296    3.7798 LP  0  0  0  0  0  0  0  0  0  0  0  0  # atno 4297 bound_to 1298
    4.8714   -8.9196    4.7091 LP  0  0  0  0  0  0  0  0  0  0  0  0  # atno 4298 bound_to 1298
    0.3925   -8.9927    7.8077 LP  0  0  0  0  0  0  0  0  0  0  0  0  # atno 4299 bound_to 2456
    1.9591   -8.8964    8.2583 LP  0  0  0  0  0  0  0  0  0  0  0  0  # atno 4300 bound_to 2456
    2.0742   -8.3772    6.0962 LP  0  0  0  0  0  0  0  0  0  0  0  0  # atno 4301 bound_to 2510
    2.4496   -7.5110    4.7637 LP  0  0  0  0  0  0  0  0  0  0  0  0  # atno 4302 bound_to 2510
   -2.7260  -18.0993   13.3829 LP  0  0  0  0  0  0  0  0  0  0  0  0  # atno 4306 bound_to 3712
   -2.9696  -17.4451   14.8592 LP  0  0  0  0  0  0  0  0  0  0  0  0  # atno 4307 bound_to 3712
    1.9362  -19.6345    8.3602 LP  0  0  0  0  0  0  0  0  0  0  0  0  # atno 4314 bound_to 3832
    3.1247  -20.7278    8.6032 LP  0  0  0  0  0  0  0  0  0  0  0  0  # atno 4315 bound_to 3832
   -4.6755  -23.2394   10.1427 LP  0  0  0  0  0  0  0  0  0  0  0  0  # atno 4318 bound_to 3762
   -5.4201  -22.0087   10.9158 LP  0  0  0  0  0  0  0  0  0  0  0  0  # atno 4319 bound_to 3762
   -4.7257   -5.4612    9.4161 LP  0  0  0  0  0  0  0  0  0  0  0  0  # atno 4320 bound_to 2467
   -5.2967   -4.9985    7.9578 LP  0  0  0  0  0  0  0  0  0  0  0  0  # atno 4321 bound_to 2467

> <Gold.Score>
     Score     S(PLP)   S(hbond)     S(cho)   S(metal)  DE(clash)   DE(tors)     intcor
     40.69     -38.38       0.99       0.00       0.00       1.11       0.80       2.04

> <Gold.PLP.Fitness>
40.6888

> <Gold.PLP.PLP>
-38.3818

> <Gold.PLP.part.hbond>
-1.0000

> <Gold.PLP.part.metal>
0.0000

> <Gold.PLP.part.buried>
-3.7728

> <Gold.PLP.part.nonpolar>
-33.5873

> <Gold.PLP.part.repulsive>
0.2020

> <Gold.PLP.ligand.clash>
1.1108

> <Gold.PLP.ligand.torsion>
0.7980

> <Gold.PLP.Chemscore.Hbond>
0.9920

> <Gold.PLP.Chemscore.CHOScore>
0.0000

> <Gold.PLP.Chemscore.Metal>
0.0000

> <Gold.Chemscore.Hbonds>
donor molecule, donor type, donor heavy atom, donor atom, acceptor molecule, acceptor atom, score
      P1  H  3832  3841       L1    14  0.99

> <Gold.PLP.Chemscore.Internal.Correction>
2.0378

