#       Name:                EN300-1071101_i001
#       Creating user name   fsindt
#       Creation time:       Wed Mar  1 13:04:04 2023


#       File generated by GOLD software.
#

@<TRIPOS>MOLECULE
EN300-1071101_i001|acide_1|mol2|8527|dock12
    41    41     1
SMALL
USER_CHARGES


@<TRIPOS>ATOM
      1 C1           0.0575 -16.1259   7.8026 C.3            1 <1>                0.0000
      2 O2           1.1782 -15.2579   7.6216 O.3            1 <1>                0.0000
      3 C3           0.8262 -13.9242   7.2481 C.3            1 <1>                0.0000
      4 C4           0.3861 -13.1462   8.4898 C.3            1 <1>                0.0000
      5 N5          -1.0645 -12.9446   8.4511 N.am           1 <1>                0.0000
      6 C6          -1.6679 -12.2075   9.4046 C.2            1 <1>                0.0000
      7 O7          -1.0089 -11.7103  10.2963 O.2            1 <1>                0.0000
      8 O8          -3.0010 -12.0221   9.3691 O.3            1 <1>                0.0000
      9 C9          -3.5090 -10.7808   9.9255 C.3            1 <1>                0.0000
     10 C10         -4.9938 -10.6392   9.5850 C.3            1 <1>                0.0000
     11 C11         -3.3332 -10.7937  11.4453 C.3            1 <1>                0.0000
     12 C12         -2.7350  -9.6017   9.3326 C.3            1 <1>                0.0000
     13 C13          1.0788 -11.8082   8.5159 C.2            1 <1>                0.0000
     14 O14          1.0715 -11.0984   7.5246 O.co2          1 <1>                0.0000
     15 O15          1.6465 -11.4353   9.5285 O.co2          1 <1>               -1.0000
     16 C16          0.7520 -13.9256   9.7267 C.ar           1 <1>                0.0000
     17 C17         -0.2410 -14.4701  10.5195 C.ar           1 <1>                0.0000
     18 C18          0.0946 -15.1849  11.6541 C.ar           1 <1>                0.0000
     19 C19          1.4231 -15.3556  11.9956 C.ar           1 <1>                0.0000
     20 C20          2.4161 -14.8119  11.2024 C.ar           1 <1>                0.0000
     21 C21          2.0807 -14.1007  10.0654 C.ar           1 <1>                0.0000
     22 H22          0.4085 -17.1184   8.0847 H              1 <1>                0.0000
     23 H23         -0.5850 -15.7304   8.5893 H              1 <1>                0.0000
     24 H24         -0.5060 -16.1906   6.8717 H              1 <1>                0.0000
     25 H25          1.6891 -13.4330   6.7984 H              1 <1>                0.0000
     26 H26          0.0082 -13.9525   6.5283 H              1 <1>                0.0000
     27 H27         -5.5452 -11.4792  10.0075 H              1 <1>                0.0000
     28 H28         -5.3752  -9.7074  10.0027 H              1 <1>                0.0000
     29 H29         -5.1190 -10.6301   8.5023 H              1 <1>                0.0000
     30 H30         -2.2753 -10.8946  11.6879 H              1 <1>                0.0000
     31 H31         -3.7145  -9.8619  11.8631 H              1 <1>                0.0000
     32 H32         -3.8845 -11.6337  11.8678 H              1 <1>                0.0000
     33 H33         -2.8602  -9.5925   8.2499 H              1 <1>                0.0000
     34 H34         -3.1163  -8.6699   9.7503 H              1 <1>                0.0000
     35 H35         -1.6771  -9.7026   9.5752 H              1 <1>                0.0000
     36 H36         -1.2791 -14.3367  10.2527 H              1 <1>                0.0000
     37 H37         -0.6812 -15.6097  12.2738 H              1 <1>                0.0000
     38 H38          1.6853 -15.9135  12.8825 H              1 <1>                0.0000
     39 H39          3.4541 -14.9451  11.4694 H              1 <1>                0.0000
     40 H40          2.8564 -13.6760   9.4457 H              1 <1>                0.0000
     41 H41         -1.5906 -13.3415   7.7394 H              1 <1>                0.0000
@<TRIPOS>BOND
    1    1    2 1     
    2    1   22 1     
    3    1   23 1     
    4    1   24 1     
    5    2    3 1     
    6    3    4 1     
    7    3   25 1     
    8    3   26 1     
    9    4    5 1     
   10    4   13 1     
   11    4   16 1     
   12    5    6 am    
   13    5   41 1     
   14    6    7 2     
   15    6    8 1     
   16    8    9 1     
   17    9   10 1     
   18    9   11 1     
   19    9   12 1     
   20   10   27 1     
   21   10   28 1     
   22   10   29 1     
   23   11   30 1     
   24   11   31 1     
   25   11   32 1     
   26   12   33 1     
   27   12   34 1     
   28   12   35 1     
   29   13   14 ar    
   30   13   15 ar    
   31   16   17 ar    
   32   16   21 ar    
   33   17   18 ar    
   34   17   36 1     
   35   18   19 ar    
   36   18   37 1     
   37   19   20 ar    
   38   19   38 1     
   39   20   21 ar    
   40   20   39 1     
   41   21   40 1     
@<TRIPOS>SUBSTRUCTURE
      1 ****           1
@<TRIPOS>SET
DONOR_HYDROGENS      STATIC     ATOMS    <user>   **** ""
1 41
ATOM$RED        STATIC     ATOMS    COLORGROUP SYSTEM
1 41
@<TRIPOS>COMMENT
> <Gold.Version>
2022.2.0

> <Gold.Id.Protein>
3pbl|protein|mol2

> <Gold.Protein.RotatedTorsions>
[ 1303 1298 1297 1294 ] final  -90.21 input  179.99 | X-H torsion
[ 2461 2456 2455 2452 ] final -157.49 input   30.03 | X-H torsion
[ 2515 2510 2509 2506 ] final   50.21 input  -89.99 | X-H torsion
[ 3721 3712 3711 3710 ] final -176.04 input -179.91 | X-H torsion
[ 3841 3832 3831 3830 ] final -131.76 input -179.91 | X-H torsion
[ 3767 3762 3761 3758 ] final  165.88 input  -89.99 | X-H torsion
[ 2472 2467 2466 2463 ] final   16.84 input  -89.97 | X-H torsion

> <Gold.Protein.ActiveResidues>
 VAL82   VAL86   LEU89   PHE106  VAL107  ASP110  VAL111  MET112  CYS114  THR115 
 CYS181  SER182  ILE183  PHE188  VAL189  ILE190  SER192  SER193  SER196  TRP342 
 PHE345  PHE346  HIS349  VAL350  TYR365  THR369  GLY372  TYR373 

> <Gold.Protein.RotatedAtoms>
    3.8291   -8.6250    3.8711 H   0  0  0  0  0  0  0  0  0  0  0  0  # atno 1303 bound_to 1298
    1.0936   -9.2872    8.3467 H   0  0  0  0  0  0  0  0  0  0  0  0  # atno 2461 bound_to 2456
   -3.9842   -4.8254    7.8759 H   0  0  0  0  0  0  0  0  0  0  0  0  # atno 2472 bound_to 2467
    2.2032   -7.4222    5.3027 H   0  0  0  0  0  0  0  0  0  0  0  0  # atno 2515 bound_to 2510
   -3.3291  -16.5862   13.6021 H   0  0  0  0  0  0  0  0  0  0  0  0  # atno 3721 bound_to 3712
   -3.9873  -22.7073   11.4582 H   0  0  0  0  0  0  0  0  0  0  0  0  # atno 3767 bound_to 3762
    2.3846  -19.6357    8.3954 H   0  0  0  0  0  0  0  0  0  0  0  0  # atno 3841 bound_to 3832
    4.9037   -9.3185    4.8863 LP  0  0  0  0  0  0  0  0  0  0  0  0  # atno 4297 bound_to 1298
    3.6296  -10.1780    4.3344 LP  0  0  0  0  0  0  0  0  0  0  0  0  # atno 4298 bound_to 1298
    2.1037   -8.2203    7.6334 LP  0  0  0  0  0  0  0  0  0  0  0  0  # atno 4299 bound_to 2456
    0.5405   -8.3009    7.1682 LP  0  0  0  0  0  0  0  0  0  0  0  0  # atno 4300 bound_to 2456
    2.8346   -8.6523    4.4344 LP  0  0  0  0  0  0  0  0  0  0  0  0  # atno 4301 bound_to 2510
    2.2591   -8.9251    5.9381 LP  0  0  0  0  0  0  0  0  0  0  0  0  # atno 4302 bound_to 2510
   -2.7559  -18.0579   13.3136 LP  0  0  0  0  0  0  0  0  0  0  0  0  # atno 4306 bound_to 3712
   -2.9282  -17.5194   14.8456 LP  0  0  0  0  0  0  0  0  0  0  0  0  # atno 4307 bound_to 3712
    2.9780  -21.0183    8.9542 LP  0  0  0  0  0  0  0  0  0  0  0  0  # atno 4314 bound_to 3832
    1.4968  -20.5048    9.4115 LP  0  0  0  0  0  0  0  0  0  0  0  0  # atno 4315 bound_to 3832
   -4.7663  -23.1951   10.1083 LP  0  0  0  0  0  0  0  0  0  0  0  0  # atno 4318 bound_to 3762
   -5.3735  -21.9727   11.0048 LP  0  0  0  0  0  0  0  0  0  0  0  0  # atno 4319 bound_to 3762
   -4.2336   -5.3960    9.3854 LP  0  0  0  0  0  0  0  0  0  0  0  0  # atno 4320 bound_to 2467
   -5.4990   -5.1721    8.3777 LP  0  0  0  0  0  0  0  0  0  0  0  0  # atno 4321 bound_to 2467

> <Gold.Score>
     Score     S(PLP)   S(hbond)     S(cho)   S(metal)  DE(clash)   DE(tors)     intcor
     40.30     -45.81       0.64       0.00       0.00       5.35       2.05       2.04

> <Gold.PLP.Fitness>
40.3045

> <Gold.PLP.PLP>
-45.8050

> <Gold.PLP.part.hbond>
-1.0000

> <Gold.PLP.part.metal>
0.0000

> <Gold.PLP.part.buried>
0.7779

> <Gold.PLP.part.nonpolar>
-47.6790

> <Gold.PLP.part.repulsive>
0.2431

> <Gold.PLP.ligand.clash>
5.3514

> <Gold.PLP.ligand.torsion>
2.0535

> <Gold.PLP.Chemscore.Hbond>
0.6400

> <Gold.PLP.Chemscore.CHOScore>
0.0000

> <Gold.PLP.Chemscore.Metal>
0.0000

> <Gold.Chemscore.Hbonds>
donor molecule, donor type, donor heavy atom, donor atom, acceptor molecule, acceptor atom, score
      P1  H  2456  2461       L1    14  0.64

> <Gold.PLP.Chemscore.Internal.Correction>
2.0378

