#       Name:                EN300-1071101_i001
#       Creating user name   fsindt
#       Creation time:       Wed Mar  1 13:03:58 2023


#       File generated by GOLD software.
#

@<TRIPOS>MOLECULE
EN300-1071101_i001|acide_1|mol2|8527|dock8
    41    41     1
SMALL
USER_CHARGES


@<TRIPOS>ATOM
      1 C1           0.3515 -13.6135   6.6485 C.3            1 <1>                0.0000
      2 O2          -0.0879 -14.3590   7.7857 O.3            1 <1>                0.0000
      3 C3           0.9245 -14.5635   8.7732 C.3            1 <1>                0.0000
      4 C4           0.2818 -15.0750  10.0640 C.3            1 <1>                0.0000
      5 N5          -0.8631 -14.2283  10.4085 N.am           1 <1>                0.0000
      6 C6          -0.6994 -12.8977  10.5475 C.2            1 <1>                0.0000
      7 O7           0.3977 -12.4005  10.3872 O.2            1 <1>                0.0000
      8 O8          -1.7515 -12.1196  10.8640 O.3            1 <1>                0.0000
      9 C9          -1.7329 -10.7537  10.3717 C.3            1 <1>                0.0000
     10 C10         -0.7441  -9.9276  11.1967 C.3            1 <1>                0.0000
     11 C11         -1.3028 -10.7467   8.9034 C.3            1 <1>                0.0000
     12 C12         -3.1322 -10.1476  10.4961 C.3            1 <1>                0.0000
     13 C13          1.2931 -15.0310  11.1804 C.2            1 <1>                0.0000
     14 O14          2.4417 -14.6937  10.9495 O.co2          1 <1>                0.0000
     15 O15          0.9626 -15.3326  12.3146 O.co2          1 <1>               -1.0000
     16 C16         -0.1850 -16.4941   9.8647 C.ar           1 <1>                0.0000
     17 C17         -0.3964 -16.9791   8.5876 C.ar           1 <1>                0.0000
     18 C18         -0.8246 -18.2807   8.4047 C.ar           1 <1>                0.0000
     19 C19         -1.0410 -19.0973   9.4989 C.ar           1 <1>                0.0000
     20 C20         -0.8286 -18.6125  10.7758 C.ar           1 <1>                0.0000
     21 C21         -0.3963 -17.3123  10.9586 C.ar           1 <1>                0.0000
     22 H22         -0.4744 -13.5016   5.9461 H              1 <1>                0.0000
     23 H23          0.6919 -12.6288   6.9690 H              1 <1>                0.0000
     24 H24          1.1724 -14.1414   6.1631 H              1 <1>                0.0000
     25 H25          1.6436 -15.2975   8.4097 H              1 <1>                0.0000
     26 H26          1.4353 -13.6211   8.9704 H              1 <1>                0.0000
     27 H27          0.2528 -10.3594  11.1081 H              1 <1>                0.0000
     28 H28         -0.7302  -8.9022  10.8272 H              1 <1>                0.0000
     29 H29         -1.0506  -9.9327  12.2427 H              1 <1>                0.0000
     30 H30         -2.0073 -11.3352   8.3156 H              1 <1>                0.0000
     31 H31         -1.2888  -9.7213   8.5338 H              1 <1>                0.0000
     32 H32         -0.3059 -11.1785   8.8148 H              1 <1>                0.0000
     33 H33         -3.4387 -10.1527  11.5421 H              1 <1>                0.0000
     34 H34         -3.1183  -9.1222  10.1265 H              1 <1>                0.0000
     35 H35         -3.8367 -10.7361   9.9082 H              1 <1>                0.0000
     36 H36         -0.2274 -16.3411   7.7327 H              1 <1>                0.0000
     37 H37         -0.9904 -18.6594   7.4070 H              1 <1>                0.0000
     38 H38         -1.3762 -20.1140   9.3560 H              1 <1>                0.0000
     39 H39         -0.9980 -19.2505  11.6307 H              1 <1>                0.0000
     40 H40         -0.2304 -16.9335  11.9563 H              1 <1>                0.0000
     41 H41         -1.7388 -14.6253  10.5365 H              1 <1>                0.0000
@<TRIPOS>BOND
    1    1    2 1     
    2    1   22 1     
    3    1   23 1     
    4    1   24 1     
    5    2    3 1     
    6    3    4 1     
    7    3   25 1     
    8    3   26 1     
    9    4    5 1     
   10    4   13 1     
   11    4   16 1     
   12    5    6 am    
   13    5   41 1     
   14    6    7 2     
   15    6    8 1     
   16    8    9 1     
   17    9   10 1     
   18    9   11 1     
   19    9   12 1     
   20   10   27 1     
   21   10   28 1     
   22   10   29 1     
   23   11   30 1     
   24   11   31 1     
   25   11   32 1     
   26   12   33 1     
   27   12   34 1     
   28   12   35 1     
   29   13   14 ar    
   30   13   15 ar    
   31   16   17 ar    
   32   16   21 ar    
   33   17   18 ar    
   34   17   36 1     
   35   18   19 ar    
   36   18   37 1     
   37   19   20 ar    
   38   19   38 1     
   39   20   21 ar    
   40   20   39 1     
   41   21   40 1     
@<TRIPOS>SUBSTRUCTURE
      1 ****           1
@<TRIPOS>SET
DONOR_HYDROGENS      STATIC     ATOMS    <user>   **** ""
1 41
ATOM$RED        STATIC     ATOMS    COLORGROUP SYSTEM
1 41
@<TRIPOS>COMMENT
> <Gold.Version>
2022.2.0

> <Gold.Id.Protein>
3pbl|protein|mol2

> <Gold.Protein.RotatedTorsions>
[ 1303 1298 1297 1294 ] final  142.83 input  179.99 | X-H torsion
[ 2461 2456 2455 2452 ] final -148.88 input   30.03 | X-H torsion
[ 2515 2510 2509 2506 ] final  173.82 input  -89.99 | X-H torsion
[ 3721 3712 3711 3710 ] final  119.97 input -179.91 | X-H torsion
[ 3841 3832 3831 3830 ] final  -95.57 input -179.91 | X-H torsion
[ 3767 3762 3761 3758 ] final   47.79 input  -89.99 | X-H torsion
[ 2472 2467 2466 2463 ] final -130.71 input  -89.97 | X-H torsion

> <Gold.Protein.ActiveResidues>
 VAL82   VAL86   LEU89   PHE106  VAL107  ASP110  VAL111  MET112  CYS114  THR115 
 CYS181  SER182  ILE183  PHE188  VAL189  ILE190  SER192  SER193  SER196  TRP342 
 PHE345  PHE346  HIS349  VAL350  TYR365  THR369  GLY372  TYR373 

> <Gold.Protein.RotatedAtoms>
    4.8835   -9.4273    4.9151 H   0  0  0  0  0  0  0  0  0  0  0  0  # atno 1303 bound_to 1298
    0.9602   -9.2864    8.2994 H   0  0  0  0  0  0  0  0  0  0  0  0  # atno 2461 bound_to 2456
   -4.6765   -5.4595    9.4240 H   0  0  0  0  0  0  0  0  0  0  0  0  # atno 2472 bound_to 2467
    2.2825   -8.9684    5.9049 H   0  0  0  0  0  0  0  0  0  0  0  0  # atno 2515 bound_to 2510
   -3.0085  -17.2336   13.0360 H   0  0  0  0  0  0  0  0  0  0  0  0  # atno 3721 bound_to 3712
   -4.7393  -23.2085   10.1169 H   0  0  0  0  0  0  0  0  0  0  0  0  # atno 3767 bound_to 3762
    1.9137  -19.5970    8.6523 H   0  0  0  0  0  0  0  0  0  0  0  0  # atno 3841 bound_to 3832
    3.5579  -10.1235    4.2635 LP  0  0  0  0  0  0  0  0  0  0  0  0  # atno 4297 bound_to 1298
    3.9205   -8.5704    3.9128 LP  0  0  0  0  0  0  0  0  0  0  0  0  # atno 4298 bound_to 1298
    2.1418   -8.3098    7.7362 LP  0  0  0  0  0  0  0  0  0  0  0  0  # atno 4299 bound_to 2456
    0.6357   -8.2121    7.1128 LP  0  0  0  0  0  0  0  0  0  0  0  0  # atno 4300 bound_to 2456
    2.1825   -7.4335    5.3571 LP  0  0  0  0  0  0  0  0  0  0  0  0  # atno 4301 bound_to 2510
    2.8317   -8.5969    4.4129 LP  0  0  0  0  0  0  0  0  0  0  0  0  # atno 4302 bound_to 2510
   -2.6295  -18.1226   14.3181 LP  0  0  0  0  0  0  0  0  0  0  0  0  # atno 4306 bound_to 3712
   -3.4248  -16.7073   14.4946 LP  0  0  0  0  0  0  0  0  0  0  0  0  # atno 4307 bound_to 3712
    3.1278  -20.6387    8.5215 LP  0  0  0  0  0  0  0  0  0  0  0  0  # atno 4314 bound_to 3832
    1.8909  -20.9291    9.5474 LP  0  0  0  0  0  0  0  0  0  0  0  0  # atno 4315 bound_to 3832
   -5.3882  -21.9825   10.9787 LP  0  0  0  0  0  0  0  0  0  0  0  0  # atno 4318 bound_to 3762
   -3.9999  -22.6843   11.4753 LP  0  0  0  0  0  0  0  0  0  0  0  0  # atno 4319 bound_to 3762
   -5.3273   -5.0149    7.9939 LP  0  0  0  0  0  0  0  0  0  0  0  0  # atno 4320 bound_to 2467
   -3.7131   -4.9193    8.2214 LP  0  0  0  0  0  0  0  0  0  0  0  0  # atno 4321 bound_to 2467

> <Gold.Score>
     Score     S(PLP)   S(hbond)     S(cho)   S(metal)  DE(clash)   DE(tors)     intcor
     44.74     -45.97       0.00       0.00       0.00       0.01       1.63       2.04

> <Gold.PLP.Fitness>
44.7408

> <Gold.PLP.PLP>
-45.9670

> <Gold.PLP.part.hbond>
0.0000

> <Gold.PLP.part.metal>
0.0000

> <Gold.PLP.part.buried>
5.2719

> <Gold.PLP.part.nonpolar>
-53.0072

> <Gold.PLP.part.repulsive>
0.3584

> <Gold.PLP.ligand.clash>
0.0095

> <Gold.PLP.ligand.torsion>
1.6273

> <Gold.PLP.Chemscore.Hbond>
0.0000

> <Gold.PLP.Chemscore.CHOScore>
0.0000

> <Gold.PLP.Chemscore.Metal>
0.0000

> <Gold.PLP.Chemscore.Internal.Correction>
2.0378

