#       Name:                EN300-1071101_i001
#       Creating user name   fsindt
#       Creation time:       Wed Mar  1 13:04:11 2023


#       File generated by GOLD software.
#

@<TRIPOS>MOLECULE
EN300-1071101_i001|acide_1|mol2|8527|dock16
    41    41     1
SMALL
USER_CHARGES


@<TRIPOS>ATOM
      1 C1           0.3538 -20.7287  16.4917 C.3            1 <1>                0.0000
      2 O2           1.0552 -19.7887  15.6753 O.3            1 <1>                0.0000
      3 C3           1.4081 -20.2895  14.3843 C.3            1 <1>                0.0000
      4 C4           0.3529 -19.8580  13.3640 C.3            1 <1>                0.0000
      5 N5          -0.9768 -20.2412  13.8448 N.am           1 <1>                0.0000
      6 C6          -1.2657 -21.5392  14.0645 C.2            1 <1>                0.0000
      7 O7          -0.4233 -22.3916  13.8637 O.2            1 <1>                0.0000
      8 O8          -2.4878 -21.8914  14.5064 O.3            1 <1>                0.0000
      9 C9          -2.6221 -23.2148  15.0885 C.3            1 <1>                0.0000
     10 C10         -1.5486 -23.4117  16.1607 C.3            1 <1>                0.0000
     11 C11         -4.0076 -23.3550  15.7222 C.3            1 <1>                0.0000
     12 C12         -2.4518 -24.2723  13.9960 C.3            1 <1>                0.0000
     13 C13          0.6240 -20.5338  12.0446 C.2            1 <1>                0.0000
     14 O14          1.6972 -20.3762  11.4880 O.co2          1 <1>                0.0000
     15 O15         -0.2300 -21.2384  11.5337 O.co2          1 <1>               -1.0000
     16 C16          0.4103 -18.3629  13.1837 C.ar           1 <1>                0.0000
     17 C17          1.2717 -17.6062  13.9559 C.ar           1 <1>                0.0000
     18 C18          1.3243 -16.2348  13.7907 C.ar           1 <1>                0.0000
     19 C19          0.5157 -15.6201  12.8531 C.ar           1 <1>                0.0000
     20 C20         -0.3450 -16.3769  12.0803 C.ar           1 <1>                0.0000
     21 C21         -0.3946 -17.7488  12.2425 C.ar           1 <1>                0.0000
     22 H22          0.1222 -20.2724  17.4541 H              1 <1>                0.0000
     23 H23         -0.5719 -21.0209  15.9959 H              1 <1>                0.0000
     24 H24          0.9762 -21.6099  16.6476 H              1 <1>                0.0000
     25 H25          2.3798 -19.8907  14.0930 H              1 <1>                0.0000
     26 H26          1.4574 -21.3779  14.4179 H              1 <1>                0.0000
     27 H27         -1.6700 -22.6584  16.9391 H              1 <1>                0.0000
     28 H28         -1.6494 -24.4052  16.5977 H              1 <1>                0.0000
     29 H29         -0.5616 -23.3118  15.7092 H              1 <1>                0.0000
     30 H30         -4.7725 -23.2147  14.9584 H              1 <1>                0.0000
     31 H31         -4.1085 -24.3484  16.1593 H              1 <1>                0.0000
     32 H32         -4.1291 -22.6016  16.5006 H              1 <1>                0.0000
     33 H33         -1.4647 -24.1724  13.5444 H              1 <1>                0.0000
     34 H34         -2.5526 -25.2658  14.4330 H              1 <1>                0.0000
     35 H35         -3.2166 -24.1320  13.2321 H              1 <1>                0.0000
     36 H36          1.9035 -18.0864  14.6886 H              1 <1>                0.0000
     37 H37          1.9969 -15.6436  14.3944 H              1 <1>                0.0000
     38 H38          0.5563 -14.5485  12.7244 H              1 <1>                0.0000
     39 H39         -0.9770 -15.8966  11.3479 H              1 <1>                0.0000
     40 H40         -1.0670 -18.3400  11.6387 H              1 <1>                0.0000
     41 H41         -1.6494 -19.5608  14.0050 H              1 <1>                0.0000
@<TRIPOS>BOND
    1    1    2 1     
    2    1   22 1     
    3    1   23 1     
    4    1   24 1     
    5    2    3 1     
    6    3    4 1     
    7    3   25 1     
    8    3   26 1     
    9    4    5 1     
   10    4   13 1     
   11    4   16 1     
   12    5    6 am    
   13    5   41 1     
   14    6    7 2     
   15    6    8 1     
   16    8    9 1     
   17    9   10 1     
   18    9   11 1     
   19    9   12 1     
   20   10   27 1     
   21   10   28 1     
   22   10   29 1     
   23   11   30 1     
   24   11   31 1     
   25   11   32 1     
   26   12   33 1     
   27   12   34 1     
   28   12   35 1     
   29   13   14 ar    
   30   13   15 ar    
   31   16   17 ar    
   32   16   21 ar    
   33   17   18 ar    
   34   17   36 1     
   35   18   19 ar    
   36   18   37 1     
   37   19   20 ar    
   38   19   38 1     
   39   20   21 ar    
   40   20   39 1     
   41   21   40 1     
@<TRIPOS>SUBSTRUCTURE
      1 ****           1
@<TRIPOS>SET
DONOR_HYDROGENS      STATIC     ATOMS    <user>   **** ""
1 41
ATOM$RED        STATIC     ATOMS    COLORGROUP SYSTEM
1 41
@<TRIPOS>COMMENT
> <Gold.Version>
2022.2.0

> <Gold.Id.Protein>
3pbl|protein|mol2

> <Gold.Protein.RotatedTorsions>
[ 1303 1298 1297 1294 ] final  155.72 input  179.99 | X-H torsion
[ 2461 2456 2455 2452 ] final  154.97 input   30.03 | X-H torsion
[ 2515 2510 2509 2506 ] final  -52.71 input  -89.99 | X-H torsion
[ 3721 3712 3711 3710 ] final   54.30 input -179.91 | X-H torsion
[ 3841 3832 3831 3830 ] final   18.73 input -179.91 | X-H torsion
[ 3767 3762 3761 3758 ] final -158.81 input  -89.99 | X-H torsion
[ 2472 2467 2466 2463 ] final  -77.85 input  -89.97 | X-H torsion

> <Gold.Protein.ActiveResidues>
 VAL82   VAL86   LEU89   PHE106  VAL107  ASP110  VAL111  MET112  CYS114  THR115 
 CYS181  SER182  ILE183  PHE188  VAL189  ILE190  SER192  SER193  SER196  TRP342 
 PHE345  PHE346  HIS349  VAL350  TYR365  THR369  GLY372  TYR373 

> <Gold.Protein.RotatedAtoms>
    4.9109   -9.2261    4.8561 H   0  0  0  0  0  0  0  0  0  0  0  0  # atno 1303 bound_to 1298
    1.8092   -9.0304    8.3399 H   0  0  0  0  0  0  0  0  0  0  0  0  # atno 2461 bound_to 2456
   -3.8922   -5.2855    9.1808 H   0  0  0  0  0  0  0  0  0  0  0  0  # atno 2472 bound_to 2467
    2.8073   -8.3833    4.3619 H   0  0  0  0  0  0  0  0  0  0  0  0  # atno 2515 bound_to 2510
   -2.5629  -17.9462   13.4556 H   0  0  0  0  0  0  0  0  0  0  0  0  # atno 3721 bound_to 3712
   -4.3226  -22.2842   11.6467 H   0  0  0  0  0  0  0  0  0  0  0  0  # atno 3767 bound_to 3762
    1.9281  -20.6850    9.6175 H   0  0  0  0  0  0  0  0  0  0  0  0  # atno 3841 bound_to 3832
    3.6961  -10.2150    4.3950 LP  0  0  0  0  0  0  0  0  0  0  0  0  # atno 4297 bound_to 1298
    3.7548   -8.6803    3.8403 LP  0  0  0  0  0  0  0  0  0  0  0  0  # atno 4298 bound_to 1298
    1.5893   -7.9245    7.1584 LP  0  0  0  0  0  0  0  0  0  0  0  0  # atno 4299 bound_to 2456
    0.3395   -8.8534    7.6500 LP  0  0  0  0  0  0  0  0  0  0  0  0  # atno 4300 bound_to 2456
    2.3737   -9.1076    5.7595 LP  0  0  0  0  0  0  0  0  0  0  0  0  # atno 4301 bound_to 2510
    2.1155   -7.5083    5.5542 LP  0  0  0  0  0  0  0  0  0  0  0  0  # atno 4302 bound_to 2510
   -3.0311  -17.3367   14.8653 LP  0  0  0  0  0  0  0  0  0  0  0  0  # atno 4306 bound_to 3712
   -3.5376  -16.6704   13.4631 LP  0  0  0  0  0  0  0  0  0  0  0  0  # atno 4307 bound_to 3712
    1.8739  -19.6381    8.4021 LP  0  0  0  0  0  0  0  0  0  0  0  0  # atno 4314 bound_to 3832
    3.1282  -20.6729    8.5519 LP  0  0  0  0  0  0  0  0  0  0  0  0  # atno 4315 bound_to 3832
   -4.2934  -23.3355   10.3975 LP  0  0  0  0  0  0  0  0  0  0  0  0  # atno 4318 bound_to 3762
   -5.5112  -22.2553   10.5272 LP  0  0  0  0  0  0  0  0  0  0  0  0  # atno 4319 bound_to 3762
   -5.4715   -5.3092    8.7667 LP  0  0  0  0  0  0  0  0  0  0  0  0  # atno 4320 bound_to 2467
   -4.3531   -4.7988    7.6918 LP  0  0  0  0  0  0  0  0  0  0  0  0  # atno 4321 bound_to 2467

> <Gold.Score>
     Score     S(PLP)   S(hbond)     S(cho)   S(metal)  DE(clash)   DE(tors)     intcor
     38.73     -36.04       1.00       0.00       0.00       1.06       0.65       2.04

> <Gold.PLP.Fitness>
38.7284

> <Gold.PLP.PLP>
-36.0432

> <Gold.PLP.part.hbond>
-1.0000

> <Gold.PLP.part.metal>
0.0000

> <Gold.PLP.part.buried>
-5.1635

> <Gold.PLP.part.nonpolar>
-30.5294

> <Gold.PLP.part.repulsive>
0.2054

> <Gold.PLP.ligand.clash>
1.0588

> <Gold.PLP.ligand.torsion>
0.6469

> <Gold.PLP.Chemscore.Hbond>
1.0000

> <Gold.PLP.Chemscore.CHOScore>
0.0000

> <Gold.PLP.Chemscore.Metal>
0.0000

> <Gold.Chemscore.Hbonds>
donor molecule, donor type, donor heavy atom, donor atom, acceptor molecule, acceptor atom, score
      P1  H  3832  3841       L1    14  1.00

> <Gold.PLP.Chemscore.Internal.Correction>
2.0378

