#       Name:                EN300-1071101_i001
#       Creating user name   fsindt
#       Creation time:       Wed Mar  1 13:04:08 2023


#       File generated by GOLD software.
#

@<TRIPOS>MOLECULE
EN300-1071101_i001|acide_1|mol2|8527|dock14
    41    41     1
SMALL
USER_CHARGES


@<TRIPOS>ATOM
      1 C1           2.5223 -17.7034  14.9976 C.3            1 <1>                0.0000
      2 O2           2.1514 -16.3710  14.6381 O.3            1 <1>                0.0000
      3 C3           1.8738 -16.2003  13.2468 C.3            1 <1>                0.0000
      4 C4           0.3915 -16.4744  12.9851 C.3            1 <1>                0.0000
      5 N5          -0.1558 -15.4210  12.1267 N.am           1 <1>                0.0000
      6 C6           0.3777 -15.1990  10.9090 C.2            1 <1>                0.0000
      7 O7           1.3127 -15.8725  10.5234 O.2            1 <1>                0.0000
      8 O8          -0.1253 -14.2308  10.1201 O.3            1 <1>                0.0000
      9 C9           0.2177 -14.2850   8.7101 C.3            1 <1>                0.0000
     10 C10         -0.1064 -15.6751   8.1594 C.3            1 <1>                0.0000
     11 C11         -0.5907 -13.2332   7.9479 C.3            1 <1>                0.0000
     12 C12          1.7117 -14.0035   8.5375 C.3            1 <1>                0.0000
     13 C13         -0.3545 -16.4937  14.2943 C.2            1 <1>                0.0000
     14 O14         -0.3795 -15.4973  14.9965 O.co2          1 <1>                0.0000
     15 O15         -0.9331 -17.5058  14.6514 O.co2          1 <1>               -1.0000
     16 C16          0.2405 -17.8088  12.3011 C.ar           1 <1>                0.0000
     17 C17          1.0904 -18.8504  12.6228 C.ar           1 <1>                0.0000
     18 C18          0.9519 -20.0743  11.9954 C.ar           1 <1>                0.0000
     19 C19         -0.0366 -20.2567  11.0465 C.ar           1 <1>                0.0000
     20 C20         -0.8870 -19.2153  10.7255 C.ar           1 <1>                0.0000
     21 C21         -0.7514 -17.9926  11.3560 C.ar           1 <1>                0.0000
     22 H22          2.7163 -17.7500  16.0692 H              1 <1>                0.0000
     23 H23          1.7116 -18.3869  14.7451 H              1 <1>                0.0000
     24 H24          3.4218 -17.9898  14.4526 H              1 <1>                0.0000
     25 H25          2.1121 -15.1786  12.9514 H              1 <1>                0.0000
     26 H26          2.4798 -16.8968  12.6673 H              1 <1>                0.0000
     27 H27         -1.1707 -15.8755   8.2824 H              1 <1>                0.0000
     28 H28          0.1511 -15.7158   7.1010 H              1 <1>                0.0000
     29 H29          0.4696 -16.4244   8.7025 H              1 <1>                0.0000
     30 H30         -0.3599 -12.2428   8.3403 H              1 <1>                0.0000
     31 H31         -0.3333 -13.2738   6.8895 H              1 <1>                0.0000
     32 H32         -1.6551 -13.4336   8.0709 H              1 <1>                0.0000
     33 H33          2.2876 -14.7528   9.0806 H              1 <1>                0.0000
     34 H34          1.9691 -14.0442   7.4791 H              1 <1>                0.0000
     35 H35          1.9425 -13.0131   8.9299 H              1 <1>                0.0000
     36 H36          1.8628 -18.7080  13.3642 H              1 <1>                0.0000
     37 H37          1.6163 -20.8880  12.2463 H              1 <1>                0.0000
     38 H38         -0.1443 -21.2128  10.5559 H              1 <1>                0.0000
     39 H39         -1.6592 -19.3577   9.9839 H              1 <1>                0.0000
     40 H40         -1.4158 -17.1790  11.1052 H              1 <1>                0.0000
     41 H41         -0.9021 -14.8832  12.4345 H              1 <1>                0.0000
@<TRIPOS>BOND
    1    1    2 1     
    2    1   22 1     
    3    1   23 1     
    4    1   24 1     
    5    2    3 1     
    6    3    4 1     
    7    3   25 1     
    8    3   26 1     
    9    4    5 1     
   10    4   13 1     
   11    4   16 1     
   12    5    6 am    
   13    5   41 1     
   14    6    7 2     
   15    6    8 1     
   16    8    9 1     
   17    9   10 1     
   18    9   11 1     
   19    9   12 1     
   20   10   27 1     
   21   10   28 1     
   22   10   29 1     
   23   11   30 1     
   24   11   31 1     
   25   11   32 1     
   26   12   33 1     
   27   12   34 1     
   28   12   35 1     
   29   13   14 ar    
   30   13   15 ar    
   31   16   17 ar    
   32   16   21 ar    
   33   17   18 ar    
   34   17   36 1     
   35   18   19 ar    
   36   18   37 1     
   37   19   20 ar    
   38   19   38 1     
   39   20   21 ar    
   40   20   39 1     
   41   21   40 1     
@<TRIPOS>SUBSTRUCTURE
      1 ****           1
@<TRIPOS>SET
DONOR_HYDROGENS      STATIC     ATOMS    <user>   **** ""
1 41
ATOM$RED        STATIC     ATOMS    COLORGROUP SYSTEM
1 41
@<TRIPOS>COMMENT
> <Gold.Version>
2022.2.0

> <Gold.Id.Protein>
3pbl|protein|mol2

> <Gold.Protein.RotatedTorsions>
[ 1303 1298 1297 1294 ] final -151.81 input  179.99 | X-H torsion
[ 2461 2456 2455 2452 ] final  179.70 input   30.03 | X-H torsion
[ 2515 2510 2509 2506 ] final -147.66 input  -89.99 | X-H torsion
[ 3721 3712 3711 3710 ] final  -25.76 input -179.91 | X-H torsion
[ 3841 3832 3831 3830 ] final   19.38 input -179.91 | X-H torsion
[ 3767 3762 3761 3758 ] final   99.55 input  -89.99 | X-H torsion
[ 2472 2467 2466 2463 ] final  -89.29 input  -89.97 | X-H torsion

> <Gold.Protein.ActiveResidues>
 VAL82   VAL86   LEU89   PHE106  VAL107  ASP110  VAL111  MET112  CYS114  THR115 
 CYS181  SER182  ILE183  PHE188  VAL189  ILE190  SER192  SER193  SER196  TRP342 
 PHE345  PHE346  HIS349  VAL350  TYR365  THR369  GLY372  TYR373 

> <Gold.Protein.RotatedAtoms>
    4.6289   -8.5812    4.4099 H   0  0  0  0  0  0  0  0  0  0  0  0  # atno 1303 bound_to 1298
    1.4556   -9.2156    8.4015 H   0  0  0  0  0  0  0  0  0  0  0  0  # atno 2461 bound_to 2456
   -4.0339   -5.3410    9.2913 H   0  0  0  0  0  0  0  0  0  0  0  0  # atno 2472 bound_to 2467
    2.5485   -9.2483    5.4176 H   0  0  0  0  0  0  0  0  0  0  0  0  # atno 2515 bound_to 2510
   -2.5808  -17.7449   14.5513 H   0  0  0  0  0  0  0  0  0  0  0  0  # atno 3721 bound_to 3712
   -4.0981  -23.3044   10.6240 H   0  0  0  0  0  0  0  0  0  0  0  0  # atno 3767 bound_to 3762
    1.9356  -20.6911    9.6184 H   0  0  0  0  0  0  0  0  0  0  0  0  # atno 3841 bound_to 3832
    4.3916  -10.1363    4.8478 LP  0  0  0  0  0  0  0  0  0  0  0  0  # atno 4297 bound_to 1298
    3.3415   -9.4042    3.8339 LP  0  0  0  0  0  0  0  0  0  0  0  0  # atno 4298 bound_to 1298
    1.9127   -8.0294    7.3761 LP  0  0  0  0  0  0  0  0  0  0  0  0  # atno 4299 bound_to 2456
    0.3695   -8.5634    7.3708 LP  0  0  0  0  0  0  0  0  0  0  0  0  # atno 4300 bound_to 2456
    2.0393   -7.7629    5.8650 LP  0  0  0  0  0  0  0  0  0  0  0  0  # atno 4301 bound_to 2510
    2.7089   -7.9875    4.3926 LP  0  0  0  0  0  0  0  0  0  0  0  0  # atno 4302 bound_to 2510
   -3.5474  -16.5607   14.0602 LP  0  0  0  0  0  0  0  0  0  0  0  0  # atno 4306 bound_to 3712
   -3.0007  -17.6788   13.0031 LP  0  0  0  0  0  0  0  0  0  0  0  0  # atno 4307 bound_to 3712
    1.8651  -19.6390    8.4083 LP  0  0  0  0  0  0  0  0  0  0  0  0  # atno 4314 bound_to 3832
    3.1283  -20.6649    8.5446 LP  0  0  0  0  0  0  0  0  0  0  0  0  # atno 4315 bound_to 3832
   -5.4649  -22.4653   10.3166 LP  0  0  0  0  0  0  0  0  0  0  0  0  # atno 4318 bound_to 3762
   -4.5642  -22.1057   11.6304 LP  0  0  0  0  0  0  0  0  0  0  0  0  # atno 4319 bound_to 3762
   -5.5065   -5.2500    8.5916 LP  0  0  0  0  0  0  0  0  0  0  0  0  # atno 4320 bound_to 2467
   -4.1765   -4.8026    7.7563 LP  0  0  0  0  0  0  0  0  0  0  0  0  # atno 4321 bound_to 2467

> <Gold.Score>
     Score     S(PLP)   S(hbond)     S(cho)   S(metal)  DE(clash)   DE(tors)     intcor
     43.53     -41.24       1.74       0.00       0.00       0.00       2.49       2.04

> <Gold.PLP.Fitness>
43.5304

> <Gold.PLP.PLP>
-41.2429

> <Gold.PLP.part.hbond>
-2.3850

> <Gold.PLP.part.metal>
0.0000

> <Gold.PLP.part.buried>
-3.8277

> <Gold.PLP.part.nonpolar>
-42.2003

> <Gold.PLP.part.repulsive>
5.4943

> <Gold.PLP.ligand.clash>
0.0029

> <Gold.PLP.ligand.torsion>
2.4897

> <Gold.PLP.Chemscore.Hbond>
1.7440

> <Gold.PLP.Chemscore.CHOScore>
0.0000

> <Gold.PLP.Chemscore.Metal>
0.0000

> <Gold.Chemscore.Hbonds>
donor molecule, donor type, donor heavy atom, donor atom, acceptor molecule, acceptor atom, score
      P1  H  2305  2313       L1    14  0.96
      P1  H  3712  3721       L1    15  0.78

> <Gold.PLP.Chemscore.Internal.Correction>
2.0378

