#       Name:                EN300-1071101_i001
#       Creating user name   fsindt
#       Creation time:       Wed Mar  1 13:03:59 2023


#       File generated by GOLD software.
#

@<TRIPOS>MOLECULE
EN300-1071101_i001|acide_1|mol2|8527|dock9
    41    41     1
SMALL
USER_CHARGES


@<TRIPOS>ATOM
      1 C1           2.2993 -16.8473  14.3792 C.3            1 <1>                0.0000
      2 O2           1.4280 -17.2361  13.3153 O.3            1 <1>                0.0000
      3 C3           1.5815 -18.5966  12.9061 C.3            1 <1>                0.0000
      4 C4           0.2277 -19.1495  12.4559 C.3            1 <1>                0.0000
      5 N5          -0.7790 -18.8730  13.4837 N.am           1 <1>                0.0000
      6 C6          -0.6144 -19.3497  14.7336 C.2            1 <1>                0.0000
      7 O7           0.3690 -20.0088  15.0080 O.2            1 <1>                0.0000
      8 O8          -1.5395 -19.0956  15.6782 O.3            1 <1>                0.0000
      9 C9          -1.7061 -20.0909  16.7223 C.3            1 <1>                0.0000
     10 C10         -0.4711 -20.0940  17.6255 C.3            1 <1>                0.0000
     11 C11         -2.9454 -19.7549  17.5541 C.3            1 <1>                0.0000
     12 C12         -1.8772 -21.4724  16.0875 C.3            1 <1>                0.0000
     13 C13          0.3372 -20.6379  12.2475 C.2            1 <1>                0.0000
     14 O14         -0.3403 -21.3988  12.9173 O.co2          1 <1>                0.0000
     15 O15          1.1032 -21.0814  11.4090 O.co2          1 <1>               -1.0000
     16 C16         -0.1796 -18.4898  11.1636 C.ar           1 <1>                0.0000
     17 C17         -0.6254 -19.2594  10.1053 C.ar           1 <1>                0.0000
     18 C18         -0.9989 -18.6543   8.9199 C.ar           1 <1>                0.0000
     19 C19         -0.9270 -17.2798   8.7929 C.ar           1 <1>                0.0000
     20 C20         -0.4820 -16.5102   9.8514 C.ar           1 <1>                0.0000
     21 C21         -0.1126 -17.1148  11.0384 C.ar           1 <1>                0.0000
     22 H22          2.1211 -15.8020  14.6312 H              1 <1>                0.0000
     23 H23          2.1061 -17.4698  15.2529 H              1 <1>                0.0000
     24 H24          3.3354 -16.9739  14.0650 H              1 <1>                0.0000
     25 H25          2.2890 -18.6497  12.0787 H              1 <1>                0.0000
     26 H26          1.9553 -19.1876  13.7423 H              1 <1>                0.0000
     27 H27         -0.3493 -19.1098  18.0778 H              1 <1>                0.0000
     28 H28         -0.5961 -20.8412  18.4093 H              1 <1>                0.0000
     29 H29          0.4118 -20.3334  17.0328 H              1 <1>                0.0000
     30 H30         -3.8253 -19.7526  16.9107 H              1 <1>                0.0000
     31 H31         -3.0704 -20.5019  18.3380 H              1 <1>                0.0000
     32 H32         -2.8236 -18.7706  18.0064 H              1 <1>                0.0000
     33 H33         -0.9943 -21.7118  15.4948 H              1 <1>                0.0000
     34 H34         -2.0022 -22.2195  16.8713 H              1 <1>                0.0000
     35 H35         -2.7570 -21.4701  15.4440 H              1 <1>                0.0000
     36 H36         -0.6816 -20.3334  10.2045 H              1 <1>                0.0000
     37 H37         -1.3466 -19.2556   8.0929 H              1 <1>                0.0000
     38 H38         -1.2182 -16.8071   7.8664 H              1 <1>                0.0000
     39 H39         -0.4256 -15.4362   9.7520 H              1 <1>                0.0000
     40 H40          0.2351 -16.5135  11.8654 H              1 <1>                0.0000
     41 H41         -1.5639 -18.3470  13.2647 H              1 <1>                0.0000
@<TRIPOS>BOND
    1    1    2 1     
    2    1   22 1     
    3    1   23 1     
    4    1   24 1     
    5    2    3 1     
    6    3    4 1     
    7    3   25 1     
    8    3   26 1     
    9    4    5 1     
   10    4   13 1     
   11    4   16 1     
   12    5    6 am    
   13    5   41 1     
   14    6    7 2     
   15    6    8 1     
   16    8    9 1     
   17    9   10 1     
   18    9   11 1     
   19    9   12 1     
   20   10   27 1     
   21   10   28 1     
   22   10   29 1     
   23   11   30 1     
   24   11   31 1     
   25   11   32 1     
   26   12   33 1     
   27   12   34 1     
   28   12   35 1     
   29   13   14 ar    
   30   13   15 ar    
   31   16   17 ar    
   32   16   21 ar    
   33   17   18 ar    
   34   17   36 1     
   35   18   19 ar    
   36   18   37 1     
   37   19   20 ar    
   38   19   38 1     
   39   20   21 ar    
   40   20   39 1     
   41   21   40 1     
@<TRIPOS>SUBSTRUCTURE
      1 ****           1
@<TRIPOS>SET
DONOR_HYDROGENS      STATIC     ATOMS    <user>   **** ""
1 41
ATOM$RED        STATIC     ATOMS    COLORGROUP SYSTEM
1 41
@<TRIPOS>COMMENT
> <Gold.Version>
2022.2.0

> <Gold.Id.Protein>
3pbl|protein|mol2

> <Gold.Protein.RotatedTorsions>
[ 1303 1298 1297 1294 ] final -161.48 input  179.99 | X-H torsion
[ 2461 2456 2455 2452 ] final  150.28 input   30.03 | X-H torsion
[ 2515 2510 2509 2506 ] final  -84.87 input  -89.99 | X-H torsion
[ 3721 3712 3711 3710 ] final -168.88 input -179.91 | X-H torsion
[ 3841 3832 3831 3830 ] final    5.61 input -179.91 | X-H torsion
[ 3767 3762 3761 3758 ] final  -93.25 input  -89.99 | X-H torsion
[ 2472 2467 2466 2463 ] final  121.38 input  -89.97 | X-H torsion

> <Gold.Protein.ActiveResidues>
 VAL82   VAL86   LEU89   PHE106  VAL107  ASP110  VAL111  MET112  CYS114  THR115 
 CYS181  SER182  ILE183  PHE188  VAL189  ILE190  SER192  SER193  SER196  TRP342 
 PHE345  PHE346  HIS349  VAL350  TYR365  THR369  GLY372  TYR373 

> <Gold.Protein.RotatedAtoms>
    4.7235   -8.6635    4.5075 H   0  0  0  0  0  0  0  0  0  0  0  0  # atno 1303 bound_to 1298
    1.8663   -8.9851    8.3146 H   0  0  0  0  0  0  0  0  0  0  0  0  # atno 2461 bound_to 2456
   -5.4271   -5.0834    8.1514 H   0  0  0  0  0  0  0  0  0  0  0  0  # atno 2472 bound_to 2467
    2.8291   -8.8669    4.5575 H   0  0  0  0  0  0  0  0  0  0  0  0  # atno 2515 bound_to 2510
   -3.3372  -16.5560   13.7057 H   0  0  0  0  0  0  0  0  0  0  0  0  # atno 3721 bound_to 3712
   -5.1892  -21.9159   11.2518 H   0  0  0  0  0  0  0  0  0  0  0  0  # atno 3767 bound_to 3762
    1.7880  -20.5495    9.5830 H   0  0  0  0  0  0  0  0  0  0  0  0  # atno 3841 bound_to 3832
    4.2628  -10.2052    4.7851 LP  0  0  0  0  0  0  0  0  0  0  0  0  # atno 4297 bound_to 1298
    3.3756   -9.2529    3.7989 LP  0  0  0  0  0  0  0  0  0  0  0  0  # atno 4298 bound_to 1298
    1.5188   -7.9184    7.1277 LP  0  0  0  0  0  0  0  0  0  0  0  0  # atno 4299 bound_to 2456
    0.3529   -8.9047    7.7060 LP  0  0  0  0  0  0  0  0  0  0  0  0  # atno 4300 bound_to 2456
    2.1701   -8.7198    6.0440 LP  0  0  0  0  0  0  0  0  0  0  0  0  # atno 4301 bound_to 2510
    2.2973   -7.4122    5.0741 LP  0  0  0  0  0  0  0  0  0  0  0  0  # atno 4302 bound_to 2510
   -2.8018  -17.9915   13.2255 LP  0  0  0  0  0  0  0  0  0  0  0  0  # atno 4306 bound_to 3712
   -2.8730  -17.6207   14.8142 LP  0  0  0  0  0  0  0  0  0  0  0  0  # atno 4307 bound_to 3712
    2.0609  -19.6407    8.2885 LP  0  0  0  0  0  0  0  0  0  0  0  0  # atno 4314 bound_to 3832
    3.1030  -20.8268    8.7054 LP  0  0  0  0  0  0  0  0  0  0  0  0  # atno 4315 bound_to 3832
   -3.9128  -22.9345   11.2556 LP  0  0  0  0  0  0  0  0  0  0  0  0  # atno 4318 bound_to 3762
   -5.0255  -23.0244   10.0638 LP  0  0  0  0  0  0  0  0  0  0  0  0  # atno 4319 bound_to 3762
   -3.8110   -4.8702    8.0554 LP  0  0  0  0  0  0  0  0  0  0  0  0  # atno 4320 bound_to 2467
   -4.4791   -5.4399    9.4323 LP  0  0  0  0  0  0  0  0  0  0  0  0  # atno 4321 bound_to 2467

> <Gold.Score>
     Score     S(PLP)   S(hbond)     S(cho)   S(metal)  DE(clash)   DE(tors)     intcor
     42.25     -37.57       1.94       0.00       0.00       0.97       1.11       2.04

> <Gold.PLP.Fitness>
42.2515

> <Gold.PLP.PLP>
-37.5697

> <Gold.PLP.part.hbond>
-3.0000

> <Gold.PLP.part.metal>
0.0000

> <Gold.PLP.part.buried>
-3.2153

> <Gold.PLP.part.nonpolar>
-32.8456

> <Gold.PLP.part.repulsive>
0.1446

> <Gold.PLP.ligand.clash>
0.9686

> <Gold.PLP.ligand.torsion>
1.1097

> <Gold.PLP.Chemscore.Hbond>
1.9440

> <Gold.PLP.Chemscore.CHOScore>
0.0000

> <Gold.PLP.Chemscore.Metal>
0.0000

> <Gold.Chemscore.Hbonds>
donor molecule, donor type, donor heavy atom, donor atom, acceptor molecule, acceptor atom, score
      L1  H     5    41       P1  3712  0.94
      P1  H  3832  3841       L1    15  1.00

> <Gold.PLP.Chemscore.Internal.Correction>
2.0378

