#       Name:                EN300-1071101_i001
#       Creating user name   fsindt
#       Creation time:       Wed Mar  1 13:04:09 2023


#       File generated by GOLD software.
#

@<TRIPOS>MOLECULE
EN300-1071101_i001|acide_1|mol2|8527|dock15
    41    41     1
SMALL
USER_CHARGES


@<TRIPOS>ATOM
      1 C1           0.8679 -23.7936  14.4218 C.3            1 <1>                0.0000
      2 O2           0.9541 -22.4999  15.0227 O.3            1 <1>                0.0000
      3 C3           0.9562 -21.4222  14.0844 C.3            1 <1>                0.0000
      4 C4          -0.4675 -20.8865  13.9200 C.3            1 <1>                0.0000
      5 N5          -0.4770 -19.8274  12.9078 N.am           1 <1>                0.0000
      6 C6           0.2895 -18.7311  13.0725 C.2            1 <1>                0.0000
      7 O7           0.9884 -18.6212  14.0604 O.2            1 <1>                0.0000
      8 O8           0.2808 -17.7577  12.1423 O.3            1 <1>                0.0000
      9 C9           0.6875 -16.4317  12.5720 C.3            1 <1>                0.0000
     10 C10          0.4074 -15.4252  11.4543 C.3            1 <1>                0.0000
     11 C11         -0.1001 -16.0371  13.8229 C.3            1 <1>                0.0000
     12 C12          2.1837 -16.4356  12.8916 C.3            1 <1>                0.0000
     13 C13         -0.9495 -20.3293  15.2346 C.2            1 <1>                0.0000
     14 O14         -0.9912 -21.0444  16.2212 O.co2          1 <1>                0.0000
     15 O15         -1.2977 -19.1634  15.3116 O.co2          1 <1>               -1.0000
     16 C16         -1.3781 -22.0056  13.4845 C.ar           1 <1>                0.0000
     17 C17         -1.0613 -22.7608  12.3709 C.ar           1 <1>                0.0000
     18 C18         -1.8965 -23.7872  11.9714 C.ar           1 <1>                0.0000
     19 C19         -3.0484 -24.0587  12.6857 C.ar           1 <1>                0.0000
     20 C20         -3.3648 -23.3040  13.7998 C.ar           1 <1>                0.0000
     21 C21         -2.5274 -22.2803  14.2019 C.ar           1 <1>                0.0000
     22 H22          0.8719 -24.5567  15.2000 H              1 <1>                0.0000
     23 H23         -0.0551 -23.8662  13.8465 H              1 <1>                0.0000
     24 H24          1.7210 -23.9446  13.7603 H              1 <1>                0.0000
     25 H25          1.6046 -20.6250  14.4480 H              1 <1>                0.0000
     26 H26          1.3234 -21.7789  13.1221 H              1 <1>                0.0000
     27 H27         -0.6586 -15.4224  11.2267 H              1 <1>                0.0000
     28 H28          0.7127 -14.4297  11.7768 H              1 <1>                0.0000
     29 H29          0.9685 -15.7064  10.5631 H              1 <1>                0.0000
     30 H30          0.0995 -16.7542  14.6192 H              1 <1>                0.0000
     31 H31          0.2051 -15.0416  14.1455 H              1 <1>                0.0000
     32 H32         -1.1661 -16.0343  13.5953 H              1 <1>                0.0000
     33 H33          2.7449 -16.7168  12.0004 H              1 <1>                0.0000
     34 H34          2.4890 -15.4401  13.2141 H              1 <1>                0.0000
     35 H35          2.3833 -17.1527  13.6879 H              1 <1>                0.0000
     36 H36         -0.1613 -22.5487  11.8127 H              1 <1>                0.0000
     37 H37         -1.6493 -24.3769  11.1010 H              1 <1>                0.0000
     38 H38         -3.7014 -24.8602  12.3732 H              1 <1>                0.0000
     39 H39         -4.2650 -23.5160  14.3577 H              1 <1>                0.0000
     40 H40         -2.7746 -21.6908  15.0723 H              1 <1>                0.0000
     41 H41         -1.0350 -19.9151  12.1192 H              1 <1>                0.0000
@<TRIPOS>BOND
    1    1    2 1     
    2    1   22 1     
    3    1   23 1     
    4    1   24 1     
    5    2    3 1     
    6    3    4 1     
    7    3   25 1     
    8    3   26 1     
    9    4    5 1     
   10    4   13 1     
   11    4   16 1     
   12    5    6 am    
   13    5   41 1     
   14    6    7 2     
   15    6    8 1     
   16    8    9 1     
   17    9   10 1     
   18    9   11 1     
   19    9   12 1     
   20   10   27 1     
   21   10   28 1     
   22   10   29 1     
   23   11   30 1     
   24   11   31 1     
   25   11   32 1     
   26   12   33 1     
   27   12   34 1     
   28   12   35 1     
   29   13   14 ar    
   30   13   15 ar    
   31   16   17 ar    
   32   16   21 ar    
   33   17   18 ar    
   34   17   36 1     
   35   18   19 ar    
   36   18   37 1     
   37   19   20 ar    
   38   19   38 1     
   39   20   21 ar    
   40   20   39 1     
   41   21   40 1     
@<TRIPOS>SUBSTRUCTURE
      1 ****           1
@<TRIPOS>SET
DONOR_HYDROGENS      STATIC     ATOMS    <user>   **** ""
1 41
ATOM$RED        STATIC     ATOMS    COLORGROUP SYSTEM
1 41
@<TRIPOS>COMMENT
> <Gold.Version>
2022.2.0

> <Gold.Id.Protein>
3pbl|protein|mol2

> <Gold.Protein.RotatedTorsions>
[ 1303 1298 1297 1294 ] final  -98.86 input  179.99 | X-H torsion
[ 2461 2456 2455 2452 ] final -150.37 input   30.03 | X-H torsion
[ 2515 2510 2509 2506 ] final   56.39 input  -89.99 | X-H torsion
[ 3721 3712 3711 3710 ] final  -16.46 input -179.91 | X-H torsion
[ 3841 3832 3831 3830 ] final  173.24 input -179.91 | X-H torsion
[ 3767 3762 3761 3758 ] final   13.74 input  -89.99 | X-H torsion
[ 2472 2467 2466 2463 ] final    0.04 input  -89.97 | X-H torsion

> <Gold.Protein.ActiveResidues>
 VAL82   VAL86   LEU89   PHE106  VAL107  ASP110  VAL111  MET112  CYS114  THR115 
 CYS181  SER182  ILE183  PHE188  VAL189  ILE190  SER192  SER193  SER196  TRP342 
 PHE345  PHE346  HIS349  VAL350  TYR365  THR369  GLY372  TYR373 

> <Gold.Protein.RotatedAtoms>
    3.9431   -8.5589    3.9246 H   0  0  0  0  0  0  0  0  0  0  0  0  # atno 1303 bound_to 1298
    0.9828   -9.2877    8.3085 H   0  0  0  0  0  0  0  0  0  0  0  0  # atno 2461 bound_to 2456
   -3.7981   -4.8758    8.0727 H   0  0  0  0  0  0  0  0  0  0  0  0  # atno 2472 bound_to 2467
    2.1687   -7.4444    5.3958 H   0  0  0  0  0  0  0  0  0  0  0  0  # atno 2515 bound_to 2510
   -2.5382  -17.8346   14.4521 H   0  0  0  0  0  0  0  0  0  0  0  0  # atno 3721 bound_to 3712
   -5.1830  -22.8814   10.0832 H   0  0  0  0  0  0  0  0  0  0  0  0  # atno 3767 bound_to 3762
    3.0118  -20.1285    8.4482 H   0  0  0  0  0  0  0  0  0  0  0  0  # atno 3841 bound_to 3832
    4.8774   -9.4541    4.9206 LP  0  0  0  0  0  0  0  0  0  0  0  0  # atno 4297 bound_to 1298
    3.5418  -10.1086    4.2465 LP  0  0  0  0  0  0  0  0  0  0  0  0  # atno 4298 bound_to 1298
    2.1367   -8.2938    7.7184 LP  0  0  0  0  0  0  0  0  0  0  0  0  # atno 4299 bound_to 2456
    0.6182   -8.2269    7.1214 LP  0  0  0  0  0  0  0  0  0  0  0  0  # atno 4300 bound_to 2456
    2.8287   -8.5569    4.3995 LP  0  0  0  0  0  0  0  0  0  0  0  0  # atno 4301 bound_to 2510
    2.2994   -8.9982    5.8799 LP  0  0  0  0  0  0  0  0  0  0  0  0  # atno 4302 bound_to 2510
   -3.5191  -16.5867   14.2106 LP  0  0  0  0  0  0  0  0  0  0  0  0  # atno 4306 bound_to 3712
   -3.0782  -17.5492   12.9673 LP  0  0  0  0  0  0  0  0  0  0  0  0  # atno 4307 bound_to 3712
    2.2710  -21.1131    9.4767 LP  0  0  0  0  0  0  0  0  0  0  0  0  # atno 4314 bound_to 3832
    1.4792  -19.8408    8.8280 LP  0  0  0  0  0  0  0  0  0  0  0  0  # atno 4315 bound_to 3832
   -5.0326  -21.9231   11.3968 LP  0  0  0  0  0  0  0  0  0  0  0  0  # atno 4318 bound_to 3762
   -3.9119  -23.0707   11.0908 LP  0  0  0  0  0  0  0  0  0  0  0  0  # atno 4319 bound_to 3762
   -4.5009   -5.4427    9.4333 LP  0  0  0  0  0  0  0  0  0  0  0  0  # atno 4320 bound_to 2467
   -5.4178   -5.0750    8.1330 LP  0  0  0  0  0  0  0  0  0  0  0  0  # atno 4321 bound_to 2467

> <Gold.Score>
     Score     S(PLP)   S(hbond)     S(cho)   S(metal)  DE(clash)   DE(tors)     intcor
     46.20     -44.03       1.00       0.00       0.00       1.35       0.76       2.04

> <Gold.PLP.Fitness>
46.2030

> <Gold.PLP.PLP>
-44.0294

> <Gold.PLP.part.hbond>
-1.0000

> <Gold.PLP.part.metal>
0.0000

> <Gold.PLP.part.buried>
-1.6654

> <Gold.PLP.part.nonpolar>
-41.6803

> <Gold.PLP.part.repulsive>
0.1358

> <Gold.PLP.ligand.clash>
1.3532

> <Gold.PLP.ligand.torsion>
0.7555

> <Gold.PLP.Chemscore.Hbond>
1.0000

> <Gold.PLP.Chemscore.CHOScore>
0.0000

> <Gold.PLP.Chemscore.Metal>
0.0000

> <Gold.Chemscore.Hbonds>
donor molecule, donor type, donor heavy atom, donor atom, acceptor molecule, acceptor atom, score
      P1  H  3712  3721       L1    15  1.00

> <Gold.PLP.Chemscore.Internal.Correction>
2.0378

