#       Name:                EN300-1071101_i001
#       Creating user name   fsindt
#       Creation time:       Wed Mar  1 13:04:03 2023


#       File generated by GOLD software.
#

@<TRIPOS>MOLECULE
EN300-1071101_i001|acide_1|mol2|8527|dock11
    41    41     1
SMALL
USER_CHARGES


@<TRIPOS>ATOM
      1 C1           0.4133 -20.3996  16.2773 C.3            1 <1>                0.0000
      2 O2           1.5708 -20.1266  15.4850 O.3            1 <1>                0.0000
      3 C3           1.5698 -20.7751  14.2117 C.3            1 <1>                0.0000
      4 C4           0.6796 -19.9946  13.2426 C.3            1 <1>                0.0000
      5 N5          -0.7255 -20.3192  13.5007 N.am           1 <1>                0.0000
      6 C6          -1.1372 -21.6022  13.4706 C.2            1 <1>                0.0000
      7 O7          -0.3429 -22.4896  13.2294 O.2            1 <1>                0.0000
      8 O8          -2.4285 -21.9006  13.7079 O.3            1 <1>                0.0000
      9 C9          -2.7458 -23.2929  13.9707 C.3            1 <1>                0.0000
     10 C10         -4.2161 -23.4132  14.3763 C.3            1 <1>                0.0000
     11 C11         -2.4957 -24.1201  12.7081 C.3            1 <1>                0.0000
     12 C12         -1.8597 -23.8127  15.1046 C.3            1 <1>                0.0000
     13 C13          1.0297 -20.3698  11.8257 C.2            1 <1>                0.0000
     14 O14          2.1578 -20.1773  11.4051 O.co2          1 <1>                0.0000
     15 O15          0.1848 -20.8658  11.0999 O.co2          1 <1>               -1.0000
     16 C16          0.8980 -18.5165  13.4395 C.ar           1 <1>                0.0000
     17 C17          2.0931 -17.9373  13.0559 C.ar           1 <1>                0.0000
     18 C18          2.2934 -16.5815  13.2366 C.ar           1 <1>                0.0000
     19 C19          1.2986 -15.8050  13.8005 C.ar           1 <1>                0.0000
     20 C20          0.1032 -16.3840  14.1832 C.ar           1 <1>                0.0000
     21 C21         -0.0989 -17.7390  13.9986 C.ar           1 <1>                0.0000
     22 H22          0.4904 -19.8710  17.2274 H              1 <1>                0.0000
     23 H23         -0.4777 -20.0644  15.7463 H              1 <1>                0.0000
     24 H24          0.3442 -21.4715  16.4624 H              1 <1>                0.0000
     25 H25          2.5869 -20.8116  13.8216 H              1 <1>                0.0000
     26 H26          1.1859 -21.7894  14.3209 H              1 <1>                0.0000
     27 H27         -4.8472 -23.0429  13.5684 H              1 <1>                0.0000
     28 H28         -4.4543 -24.4584  14.5736 H              1 <1>                0.0000
     29 H29         -4.3942 -22.8239  15.2758 H              1 <1>                0.0000
     30 H30         -1.4481 -24.0344  12.4191 H              1 <1>                0.0000
     31 H31         -2.7339 -25.1653  12.9053 H              1 <1>                0.0000
     32 H32         -3.1268 -23.7498  11.9003 H              1 <1>                0.0000
     33 H33         -2.0378 -23.2234  16.0041 H              1 <1>                0.0000
     34 H34         -2.0979 -24.8579  15.3019 H              1 <1>                0.0000
     35 H35         -0.8122 -23.7270  14.8156 H              1 <1>                0.0000
     36 H36          2.8705 -18.5440  12.6154 H              1 <1>                0.0000
     37 H37          3.2274 -16.1291  12.9375 H              1 <1>                0.0000
     38 H38          1.4554 -14.7458  13.9422 H              1 <1>                0.0000
     39 H39         -0.6740 -15.7772  14.6240 H              1 <1>                0.0000
     40 H40         -1.0329 -18.1913  14.2976 H              1 <1>                0.0000
     41 H41         -1.3595 -19.6108  13.6933 H              1 <1>                0.0000
@<TRIPOS>BOND
    1    1    2 1     
    2    1   22 1     
    3    1   23 1     
    4    1   24 1     
    5    2    3 1     
    6    3    4 1     
    7    3   25 1     
    8    3   26 1     
    9    4    5 1     
   10    4   13 1     
   11    4   16 1     
   12    5    6 am    
   13    5   41 1     
   14    6    7 2     
   15    6    8 1     
   16    8    9 1     
   17    9   10 1     
   18    9   11 1     
   19    9   12 1     
   20   10   27 1     
   21   10   28 1     
   22   10   29 1     
   23   11   30 1     
   24   11   31 1     
   25   11   32 1     
   26   12   33 1     
   27   12   34 1     
   28   12   35 1     
   29   13   14 ar    
   30   13   15 ar    
   31   16   17 ar    
   32   16   21 ar    
   33   17   18 ar    
   34   17   36 1     
   35   18   19 ar    
   36   18   37 1     
   37   19   20 ar    
   38   19   38 1     
   39   20   21 ar    
   40   20   39 1     
   41   21   40 1     
@<TRIPOS>SUBSTRUCTURE
      1 ****           1
@<TRIPOS>SET
DONOR_HYDROGENS      STATIC     ATOMS    <user>   **** ""
1 41
ATOM$RED        STATIC     ATOMS    COLORGROUP SYSTEM
1 41
@<TRIPOS>COMMENT
> <Gold.Version>
2022.2.0

> <Gold.Id.Protein>
3pbl|protein|mol2

> <Gold.Protein.RotatedTorsions>
[ 1303 1298 1297 1294 ] final   67.53 input  179.99 | X-H torsion
[ 2461 2456 2455 2452 ] final   24.66 input   30.03 | X-H torsion
[ 2515 2510 2509 2506 ] final  -46.72 input  -89.99 | X-H torsion
[ 3721 3712 3711 3710 ] final -158.30 input -179.91 | X-H torsion
[ 3841 3832 3831 3830 ] final   17.07 input -179.91 | X-H torsion
[ 3767 3762 3761 3758 ] final  164.41 input  -89.99 | X-H torsion
[ 2472 2467 2466 2463 ] final -179.23 input  -89.97 | X-H torsion

> <Gold.Protein.ActiveResidues>
 VAL82   VAL86   LEU89   PHE106  VAL107  ASP110  VAL111  MET112  CYS114  THR115 
 CYS181  SER182  ILE183  PHE188  VAL189  ILE190  SER192  SER193  SER196  TRP342 
 PHE345  PHE346  HIS349  VAL350  TYR365  THR369  GLY372  TYR373 

> <Gold.Protein.RotatedAtoms>
    4.1117  -10.2545    4.6998 H   0  0  0  0  0  0  0  0  0  0  0  0  # atno 1303 bound_to 1298
    1.4320   -7.9169    7.0960 H   0  0  0  0  0  0  0  0  0  0  0  0  # atno 2461 bound_to 2456
   -5.3395   -5.3902    9.0293 H   0  0  0  0  0  0  0  0  0  0  0  0  # atno 2472 bound_to 2467
    2.7897   -8.2866    4.3543 H   0  0  0  0  0  0  0  0  0  0  0  0  # atno 2515 bound_to 2510
   -3.3368  -16.5322   13.8636 H   0  0  0  0  0  0  0  0  0  0  0  0  # atno 3721 bound_to 3712
   -3.9785  -22.7255   11.4446 H   0  0  0  0  0  0  0  0  0  0  0  0  # atno 3767 bound_to 3762
    1.9090  -20.6689    9.6149 H   0  0  0  0  0  0  0  0  0  0  0  0  # atno 3841 bound_to 3832
    3.4400   -9.0854    3.7787 LP  0  0  0  0  0  0  0  0  0  0  0  0  # atno 4297 bound_to 1298
    4.8104   -8.7812    4.6130 LP  0  0  0  0  0  0  0  0  0  0  0  0  # atno 4298 bound_to 1298
    0.3768   -8.9636    7.7731 LP  0  0  0  0  0  0  0  0  0  0  0  0  # atno 4299 bound_to 2456
    1.9291   -8.9274    8.2789 LP  0  0  0  0  0  0  0  0  0  0  0  0  # atno 4300 bound_to 2456
    2.4158   -9.1561    5.6847 LP  0  0  0  0  0  0  0  0  0  0  0  0  # atno 4301 bound_to 2510
    2.0911   -7.5565    5.6367 LP  0  0  0  0  0  0  0  0  0  0  0  0  # atno 4302 bound_to 2510
   -2.8776  -17.8764   13.1151 LP  0  0  0  0  0  0  0  0  0  0  0  0  # atno 4306 bound_to 3712
   -2.7977  -17.7632   14.7422 LP  0  0  0  0  0  0  0  0  0  0  0  0  # atno 4307 bound_to 3712
    1.8966  -19.6362    8.3863 LP  0  0  0  0  0  0  0  0  0  0  0  0  # atno 4314 bound_to 3832
    3.1275  -20.6933    8.5706 LP  0  0  0  0  0  0  0  0  0  0  0  0  # atno 4315 bound_to 3832
   -4.7869  -23.1840   10.1018 LP  0  0  0  0  0  0  0  0  0  0  0  0  # atno 4318 bound_to 3762
   -5.3617  -21.9657   11.0249 LP  0  0  0  0  0  0  0  0  0  0  0  0  # atno 4319 bound_to 3762
   -4.6558   -4.8207    7.6601 LP  0  0  0  0  0  0  0  0  0  0  0  0  # atno 4320 bound_to 2467
   -3.7218   -5.1827    8.9497 LP  0  0  0  0  0  0  0  0  0  0  0  0  # atno 4321 bound_to 2467

> <Gold.Score>
     Score     S(PLP)   S(hbond)     S(cho)   S(metal)  DE(clash)   DE(tors)     intcor
     42.60     -41.00       1.00       0.00       0.00       1.75       0.85       2.04

> <Gold.PLP.Fitness>
42.5996

> <Gold.PLP.PLP>
-41.0047

> <Gold.PLP.part.hbond>
-1.8353

> <Gold.PLP.part.metal>
0.0000

> <Gold.PLP.part.buried>
-2.0875

> <Gold.PLP.part.nonpolar>
-38.6113

> <Gold.PLP.part.repulsive>
0.2685

> <Gold.PLP.ligand.clash>
1.7497

> <Gold.PLP.ligand.torsion>
0.8466

> <Gold.PLP.Chemscore.Hbond>
1.0000

> <Gold.PLP.Chemscore.CHOScore>
0.0000

> <Gold.PLP.Chemscore.Metal>
0.0000

> <Gold.Chemscore.Hbonds>
donor molecule, donor type, donor heavy atom, donor atom, acceptor molecule, acceptor atom, score
      P1  H  3832  3841       L1    14  1.00

> <Gold.PLP.Chemscore.Internal.Correction>
2.0378

