#       Name:                EN300-1071101_i001
#       Creating user name   fsindt
#       Creation time:       Wed Mar  1 13:03:57 2023


#       File generated by GOLD software.
#

@<TRIPOS>MOLECULE
EN300-1071101_i001|acide_1|mol2|8527|dock7
    41    41     1
SMALL
USER_CHARGES


@<TRIPOS>ATOM
      1 C1           2.3802 -17.4594  14.6981 C.3            1 <1>                0.0000
      2 O2           1.8079 -16.3776  13.9602 O.3            1 <1>                0.0000
      3 C3           1.8202 -16.5690  12.5442 C.3            1 <1>                0.0000
      4 C4           0.4694 -17.1285  12.0935 C.3            1 <1>                0.0000
      5 N5           0.2160 -16.7341  10.7056 N.am           1 <1>                0.0000
      6 C6           0.1913 -15.4291  10.3697 C.2            1 <1>                0.0000
      7 O7           0.3792 -14.5797  11.2180 O.2            1 <1>                0.0000
      8 O8          -0.0416 -15.0666   9.0941 O.3            1 <1>                0.0000
      9 C9           0.2632 -13.6937   8.7328 C.3            1 <1>                0.0000
     10 C10          0.0994 -13.5154   7.2221 C.3            1 <1>                0.0000
     11 C11         -0.6929 -12.7496   9.4645 C.3            1 <1>                0.0000
     12 C12          1.7044 -13.3694   9.1313 C.3            1 <1>                0.0000
     13 C13         -0.6211 -16.5817  12.9782 C.2            1 <1>                0.0000
     14 O14         -0.6387 -16.8577  14.1657 O.co2          1 <1>                0.0000
     15 O15         -1.4860 -15.8633  12.5065 O.co2          1 <1>               -1.0000
     16 C16          0.4902 -18.6322  12.1927 C.ar           1 <1>                0.0000
     17 C17         -0.6813 -19.3508  12.0441 C.ar           1 <1>                0.0000
     18 C18         -0.6623 -20.7300  12.1351 C.ar           1 <1>                0.0000
     19 C19          0.5282 -21.3905  12.3743 C.ar           1 <1>                0.0000
     20 C20          1.6998 -20.6719  12.5219 C.ar           1 <1>                0.0000
     21 C21          1.6815 -19.2930  12.4267 C.ar           1 <1>                0.0000
     22 H22          2.3328 -17.2373  15.7641 H              1 <1>                0.0000
     23 H23          1.8240 -18.3739  14.4923 H              1 <1>                0.0000
     24 H24          3.4204 -17.5920  14.4005 H              1 <1>                0.0000
     25 H25          2.0014 -15.6146  12.0500 H              1 <1>                0.0000
     26 H26          2.6108 -17.2711  12.2794 H              1 <1>                0.0000
     27 H27         -0.9274 -13.7465   6.9383 H              1 <1>                0.0000
     28 H28          0.3282 -12.4848   6.9509 H              1 <1>                0.0000
     29 H29          0.7805 -14.1881   6.7010 H              1 <1>                0.0000
     30 H30         -0.5762 -12.8766  10.5407 H              1 <1>                0.0000
     31 H31         -0.4642 -11.7189   9.1933 H              1 <1>                0.0000
     32 H32         -1.7196 -12.9806   9.1806 H              1 <1>                0.0000
     33 H33          2.3855 -14.0420   8.6101 H              1 <1>                0.0000
     34 H34          1.9332 -12.3387   8.8601 H              1 <1>                0.0000
     35 H35          1.8211 -13.4963  10.2076 H              1 <1>                0.0000
     36 H36         -1.6115 -18.8348  11.8572 H              1 <1>                0.0000
     37 H37         -1.5777 -21.2915  12.0196 H              1 <1>                0.0000
     38 H38          0.5429 -22.4681  12.4460 H              1 <1>                0.0000
     39 H39          2.6299 -21.1880  12.7091 H              1 <1>                0.0000
     40 H40          2.5969 -18.7316  12.5420 H              1 <1>                0.0000
     41 H41          0.0660 -17.4122  10.0283 H              1 <1>                0.0000
@<TRIPOS>BOND
    1    1    2 1     
    2    1   22 1     
    3    1   23 1     
    4    1   24 1     
    5    2    3 1     
    6    3    4 1     
    7    3   25 1     
    8    3   26 1     
    9    4    5 1     
   10    4   13 1     
   11    4   16 1     
   12    5    6 am    
   13    5   41 1     
   14    6    7 2     
   15    6    8 1     
   16    8    9 1     
   17    9   10 1     
   18    9   11 1     
   19    9   12 1     
   20   10   27 1     
   21   10   28 1     
   22   10   29 1     
   23   11   30 1     
   24   11   31 1     
   25   11   32 1     
   26   12   33 1     
   27   12   34 1     
   28   12   35 1     
   29   13   14 ar    
   30   13   15 ar    
   31   16   17 ar    
   32   16   21 ar    
   33   17   18 ar    
   34   17   36 1     
   35   18   19 ar    
   36   18   37 1     
   37   19   20 ar    
   38   19   38 1     
   39   20   21 ar    
   40   20   39 1     
   41   21   40 1     
@<TRIPOS>SUBSTRUCTURE
      1 ****           1
@<TRIPOS>SET
DONOR_HYDROGENS      STATIC     ATOMS    <user>   **** ""
1 41
ATOM$RED        STATIC     ATOMS    COLORGROUP SYSTEM
1 41
@<TRIPOS>COMMENT
> <Gold.Version>
2022.2.0

> <Gold.Id.Protein>
3pbl|protein|mol2

> <Gold.Protein.RotatedTorsions>
[ 1303 1298 1297 1294 ] final    9.72 input  179.99 | X-H torsion
[ 2461 2456 2455 2452 ] final  161.09 input   30.03 | X-H torsion
[ 2515 2510 2509 2506 ] final    8.57 input  -89.99 | X-H torsion
[ 3721 3712 3711 3710 ] final  149.60 input -179.91 | X-H torsion
[ 3841 3832 3831 3830 ] final  -54.35 input -179.91 | X-H torsion
[ 3767 3762 3761 3758 ] final   75.55 input  -89.99 | X-H torsion
[ 2472 2467 2466 2463 ] final  157.77 input  -89.97 | X-H torsion

> <Gold.Protein.ActiveResidues>
 VAL82   VAL86   LEU89   PHE106  VAL107  ASP110  VAL111  MET112  CYS114  THR115 
 CYS181  SER182  ILE183  PHE188  VAL189  ILE190  SER192  SER193  SER196  TRP342 
 PHE345  PHE346  HIS349  VAL350  TYR365  THR369  GLY372  TYR373 

> <Gold.Protein.RotatedAtoms>
    3.4464   -9.9915    4.1354 H   0  0  0  0  0  0  0  0  0  0  0  0  # atno 1303 bound_to 1298
    1.7289   -9.0852    8.3667 H   0  0  0  0  0  0  0  0  0  0  0  0  # atno 2461 bound_to 2456
   -5.4892   -5.2879    8.7000 H   0  0  0  0  0  0  0  0  0  0  0  0  # atno 2472 bound_to 2467
    2.4818   -7.5476    4.7066 H   0  0  0  0  0  0  0  0  0  0  0  0  # atno 2515 bound_to 2510
   -3.2034  -16.8688   13.1945 H   0  0  0  0  0  0  0  0  0  0  0  0  # atno 3721 bound_to 3712
   -4.3625  -23.3301   10.3356 H   0  0  0  0  0  0  0  0  0  0  0  0  # atno 3767 bound_to 3762
    1.5891  -19.8648    9.0931 H   0  0  0  0  0  0  0  0  0  0  0  0  # atno 3841 bound_to 3832
    4.0995   -8.5002    4.0099 LP  0  0  0  0  0  0  0  0  0  0  0  0  # atno 4297 bound_to 1298
    4.8166   -9.6295    4.9464 LP  0  0  0  0  0  0  0  0  0  0  0  0  # atno 4298 bound_to 1298
    1.6779   -7.9393    7.2041 LP  0  0  0  0  0  0  0  0  0  0  0  0  # atno 4299 bound_to 2456
    0.3311   -8.7838    7.5776 LP  0  0  0  0  0  0  0  0  0  0  0  0  # atno 4300 bound_to 2456
    2.7544   -9.1483    4.8779 LP  0  0  0  0  0  0  0  0  0  0  0  0  # atno 4301 bound_to 2510
    2.0605   -8.3036    6.0910 LP  0  0  0  0  0  0  0  0  0  0  0  0  # atno 4302 bound_to 2510
   -2.6175  -18.2180   13.8382 LP  0  0  0  0  0  0  0  0  0  0  0  0  # atno 4306 bound_to 3712
   -3.2118  -17.0329   14.7916 LP  0  0  0  0  0  0  0  0  0  0  0  0  # atno 4307 bound_to 3712
    2.8926  -20.1027    8.1873 LP  0  0  0  0  0  0  0  0  0  0  0  0  # atno 4314 bound_to 3832
    2.5011  -21.1557    9.3725 LP  0  0  0  0  0  0  0  0  0  0  0  0  # atno 4315 bound_to 3832
   -5.5090  -22.1975   10.5996 LP  0  0  0  0  0  0  0  0  0  0  0  0  # atno 4318 bound_to 3762
   -4.2558  -22.3478   11.6358 LP  0  0  0  0  0  0  0  0  0  0  0  0  # atno 4319 bound_to 3762
   -4.2842   -4.7987    7.7126 LP  0  0  0  0  0  0  0  0  0  0  0  0  # atno 4320 bound_to 2467
   -3.9437   -5.3069    9.2266 LP  0  0  0  0  0  0  0  0  0  0  0  0  # atno 4321 bound_to 2467

> <Gold.Score>
     Score     S(PLP)   S(hbond)     S(cho)   S(metal)  DE(clash)   DE(tors)     intcor
     37.51     -36.90       0.63       0.00       0.00       0.72       1.31       2.04

> <Gold.PLP.Fitness>
37.5059

> <Gold.PLP.PLP>
-36.9036

> <Gold.PLP.part.hbond>
-3.0000

> <Gold.PLP.part.metal>
0.0000

> <Gold.PLP.part.buried>
2.1414

> <Gold.PLP.part.nonpolar>
-38.0552

> <Gold.PLP.part.repulsive>
1.3675

> <Gold.PLP.ligand.clash>
0.7247

> <Gold.PLP.ligand.torsion>
1.3070

> <Gold.PLP.Chemscore.Hbond>
0.6344

> <Gold.PLP.Chemscore.CHOScore>
0.0000

> <Gold.PLP.Chemscore.Metal>
0.0000

> <Gold.Chemscore.Hbonds>
donor molecule, donor type, donor heavy atom, donor atom, acceptor molecule, acceptor atom, score
      P1  H  3712  3721       L1    15  0.63

> <Gold.PLP.Chemscore.Internal.Correction>
2.0378

