#       Name:                EN300-1071101_i001
#       Creating user name   fsindt
#       Creation time:       Wed Mar  1 13:04:13 2023


#       File generated by GOLD software.
#

@<TRIPOS>MOLECULE
EN300-1071101_i001|acide_1|mol2|8527|dock17
    41    41     1
SMALL
USER_CHARGES


@<TRIPOS>ATOM
      1 C1          -1.3073 -12.8910  11.4001 C.3            1 <1>                0.0000
      2 O2          -0.8249 -13.9498  12.2297 O.3            1 <1>                0.0000
      3 C3          -1.0661 -15.2564  11.7037 C.3            1 <1>                0.0000
      4 C4           0.1951 -15.7646  11.0023 C.3            1 <1>                0.0000
      5 N5           0.0338 -17.1834  10.6751 N.am           1 <1>                0.0000
      6 C6          -0.2631 -18.0695  11.6464 C.2            1 <1>                0.0000
      7 O7          -0.3970 -17.6914  12.7934 O.2            1 <1>                0.0000
      8 O8          -0.4113 -19.3734  11.3456 O.3            1 <1>                0.0000
      9 C9          -0.0667 -20.3319  12.3806 C.3            1 <1>                0.0000
     10 C10          1.3177 -20.0010  12.9415 C.3            1 <1>                0.0000
     11 C11         -1.1023 -20.2631  13.5046 C.3            1 <1>                0.0000
     12 C12         -0.0525 -21.7415  11.7859 C.3            1 <1>                0.0000
     13 C13          1.3817 -15.5913  11.9149 C.2            1 <1>                0.0000
     14 O14          2.4946 -15.4298  11.4438 O.co2          1 <1>                0.0000
     15 O15          1.2289 -15.6125  13.1243 O.co2          1 <1>               -1.0000
     16 C16          0.4165 -14.9790   9.7355 C.ar           1 <1>                0.0000
     17 C17          1.0681 -13.7607   9.7827 C.ar           1 <1>                0.0000
     18 C18          1.2712 -13.0401   8.6207 C.ar           1 <1>                0.0000
     19 C19          0.8230 -13.5378   7.4115 C.ar           1 <1>                0.0000
     20 C20          0.1723 -14.7564   7.3642 C.ar           1 <1>                0.0000
     21 C21         -0.0270 -15.4792   8.5256 C.ar           1 <1>                0.0000
     22 H22         -1.0856 -11.9323  11.8688 H              1 <1>                0.0000
     23 H23         -0.8194 -12.9410  10.4267 H              1 <1>                0.0000
     24 H24         -2.3850 -12.9922  11.2718 H              1 <1>                0.0000
     25 H25         -1.3273 -15.9331  12.5172 H              1 <1>                0.0000
     26 H26         -1.8875 -15.2141  10.9884 H              1 <1>                0.0000
     27 H27          1.3075 -18.9968  13.3652 H              1 <1>                0.0000
     28 H28          1.5765 -20.7205  13.7184 H              1 <1>                0.0000
     29 H29          2.0555 -20.0500  12.1407 H              1 <1>                0.0000
     30 H30         -2.0886 -20.4988  13.1050 H              1 <1>                0.0000
     31 H31         -0.8436 -20.9825  14.2816 H              1 <1>                0.0000
     32 H32         -1.1125 -19.2588  13.9283 H              1 <1>                0.0000
     33 H33          0.6853 -21.7906  10.9850 H              1 <1>                0.0000
     34 H34          0.2063 -22.4610  12.5628 H              1 <1>                0.0000
     35 H35         -1.0388 -21.9773  11.3862 H              1 <1>                0.0000
     36 H36          1.4182 -13.3717  10.7275 H              1 <1>                0.0000
     37 H37          1.7797 -12.0879   8.6577 H              1 <1>                0.0000
     38 H38          0.9811 -12.9744   6.5037 H              1 <1>                0.0000
     39 H39         -0.1781 -15.1452   6.4194 H              1 <1>                0.0000
     40 H40         -0.5354 -16.4313   8.4886 H              1 <1>                0.0000
     41 H41          0.1408 -17.4853   9.7595 H              1 <1>                0.0000
@<TRIPOS>BOND
    1    1    2 1     
    2    1   22 1     
    3    1   23 1     
    4    1   24 1     
    5    2    3 1     
    6    3    4 1     
    7    3   25 1     
    8    3   26 1     
    9    4    5 1     
   10    4   13 1     
   11    4   16 1     
   12    5    6 am    
   13    5   41 1     
   14    6    7 2     
   15    6    8 1     
   16    8    9 1     
   17    9   10 1     
   18    9   11 1     
   19    9   12 1     
   20   10   27 1     
   21   10   28 1     
   22   10   29 1     
   23   11   30 1     
   24   11   31 1     
   25   11   32 1     
   26   12   33 1     
   27   12   34 1     
   28   12   35 1     
   29   13   14 ar    
   30   13   15 ar    
   31   16   17 ar    
   32   16   21 ar    
   33   17   18 ar    
   34   17   36 1     
   35   18   19 ar    
   36   18   37 1     
   37   19   20 ar    
   38   19   38 1     
   39   20   21 ar    
   40   20   39 1     
   41   21   40 1     
@<TRIPOS>SUBSTRUCTURE
      1 ****           1
@<TRIPOS>SET
DONOR_HYDROGENS      STATIC     ATOMS    <user>   **** ""
1 41
ATOM$RED        STATIC     ATOMS    COLORGROUP SYSTEM
1 41
@<TRIPOS>COMMENT
> <Gold.Version>
2022.2.0

> <Gold.Id.Protein>
3pbl|protein|mol2

> <Gold.Protein.RotatedTorsions>
[ 1303 1298 1297 1294 ] final  103.72 input  179.99 | X-H torsion
[ 2461 2456 2455 2452 ] final -116.85 input   30.03 | X-H torsion
[ 2515 2510 2509 2506 ] final  147.38 input  -89.99 | X-H torsion
[ 3721 3712 3711 3710 ] final   49.11 input -179.91 | X-H torsion
[ 3841 3832 3831 3830 ] final   18.96 input -179.91 | X-H torsion
[ 3767 3762 3761 3758 ] final   85.48 input  -89.99 | X-H torsion
[ 2472 2467 2466 2463 ] final   -9.67 input  -89.97 | X-H torsion

> <Gold.Protein.ActiveResidues>
 VAL82   VAL86   LEU89   PHE106  VAL107  ASP110  VAL111  MET112  CYS114  THR115 
 CYS181  SER182  ILE183  PHE188  VAL189  ILE190  SER192  SER193  SER196  TRP342 
 PHE345  PHE346  HIS349  VAL350  TYR365  THR369  GLY372  TYR373 

> <Gold.Protein.RotatedAtoms>
    4.5805   -9.9808    4.9194 H   0  0  0  0  0  0  0  0  0  0  0  0  # atno 1303 bound_to 1298
    0.5423   -9.1524    8.0196 H   0  0  0  0  0  0  0  0  0  0  0  0  # atno 2461 bound_to 2456
   -3.7200   -4.9153    8.2060 H   0  0  0  0  0  0  0  0  0  0  0  0  # atno 2472 bound_to 2467
    2.1314   -8.6029    6.0765 H   0  0  0  0  0  0  0  0  0  0  0  0  # atno 2515 bound_to 2510
   -2.5400  -17.9754   13.5247 H   0  0  0  0  0  0  0  0  0  0  0  0  # atno 3721 bound_to 3712
   -4.2429  -23.3345   10.4465 H   0  0  0  0  0  0  0  0  0  0  0  0  # atno 3767 bound_to 3762
    1.9307  -20.6871    9.6178 H   0  0  0  0  0  0  0  0  0  0  0  0  # atno 3841 bound_to 3832
    3.3332   -9.6434    3.9210 LP  0  0  0  0  0  0  0  0  0  0  0  0  # atno 4297 bound_to 1298
    4.4483   -8.4969    4.2510 LP  0  0  0  0  0  0  0  0  0  0  0  0  # atno 4298 bound_to 1298
    2.1048   -8.6833    8.0964 LP  0  0  0  0  0  0  0  0  0  0  0  0  # atno 4299 bound_to 2456
    1.0904   -7.9726    7.0322 LP  0  0  0  0  0  0  0  0  0  0  0  0  # atno 4300 bound_to 2456
    2.3499   -7.4321    4.9597 LP  0  0  0  0  0  0  0  0  0  0  0  0  # atno 4301 bound_to 2510
    2.8156   -8.9640    4.6387 LP  0  0  0  0  0  0  0  0  0  0  0  0  # atno 4302 bound_to 2510
   -3.0745  -17.2618   14.8599 LP  0  0  0  0  0  0  0  0  0  0  0  0  # atno 4306 bound_to 3712
   -3.5207  -16.7115   13.3886 LP  0  0  0  0  0  0  0  0  0  0  0  0  # atno 4307 bound_to 3712
    1.8708  -19.6384    8.4043 LP  0  0  0  0  0  0  0  0  0  0  0  0  # atno 4314 bound_to 3832
    3.1283  -20.6701    8.5493 LP  0  0  0  0  0  0  0  0  0  0  0  0  # atno 4315 bound_to 3832
   -5.5076  -22.3017   10.4741 LP  0  0  0  0  0  0  0  0  0  0  0  0  # atno 4318 bound_to 3762
   -4.3767  -22.2391   11.6503 LP  0  0  0  0  0  0  0  0  0  0  0  0  # atno 4319 bound_to 3762
   -4.6595   -5.4577    9.4265 LP  0  0  0  0  0  0  0  0  0  0  0  0  # atno 4320 bound_to 2467
   -5.3373   -5.0205    8.0066 LP  0  0  0  0  0  0  0  0  0  0  0  0  # atno 4321 bound_to 2467

> <Gold.Score>
     Score     S(PLP)   S(hbond)     S(cho)   S(metal)  DE(clash)   DE(tors)     intcor
     42.18     -44.74       0.50       0.00       0.00       0.22       2.95       2.04

> <Gold.PLP.Fitness>
42.1781

> <Gold.PLP.PLP>
-44.7450

> <Gold.PLP.part.hbond>
-2.1926

> <Gold.PLP.part.metal>
0.0000

> <Gold.PLP.part.buried>
-5.9202

> <Gold.PLP.part.nonpolar>
-40.7000

> <Gold.PLP.part.repulsive>
2.5841

> <Gold.PLP.ligand.clash>
0.2234

> <Gold.PLP.ligand.torsion>
2.9465

> <Gold.PLP.Chemscore.Hbond>
0.5039

> <Gold.PLP.Chemscore.CHOScore>
0.0000

> <Gold.PLP.Chemscore.Metal>
0.0000

> <Gold.Chemscore.Hbonds>
donor molecule, donor type, donor heavy atom, donor atom, acceptor molecule, acceptor atom, score
      P1  H  3712  3721       L1     7  0.50

> <Gold.PLP.Chemscore.Internal.Correction>
2.0378

