#       Name:                EN300-1071101_i001
#       Creating user name   fsindt
#       Creation time:       Wed Mar  1 13:03:53 2023


#       File generated by GOLD software.
#

@<TRIPOS>MOLECULE
EN300-1071101_i001|acide_1|mol2|8527|dock4
    41    41     1
SMALL
USER_CHARGES


@<TRIPOS>ATOM
      1 C1           2.7725 -17.7121  14.8918 C.3            1 <1>                0.0000
      2 O2           2.2992 -16.4998  14.3015 O.3            1 <1>                0.0000
      3 C3           2.0864 -16.5844  12.8910 C.3            1 <1>                0.0000
      4 C4           0.6855 -17.1359  12.6188 C.3            1 <1>                0.0000
      5 N5           0.3609 -16.9663  11.2003 N.am           1 <1>                0.0000
      6 C6           0.2902 -15.7298  10.6684 C.2            1 <1>                0.0000
      7 O7           0.4956 -14.7559  11.3654 O.2            1 <1>                0.0000
      8 O8          -0.0081 -15.5740   9.3648 O.3            1 <1>                0.0000
      9 C9           0.4141 -14.3353   8.7356 C.3            1 <1>                0.0000
     10 C10          0.1889 -14.4279   7.2252 C.3            1 <1>                0.0000
     11 C11         -0.4015 -13.1715   9.3025 C.3            1 <1>                0.0000
     12 C12          1.8998 -14.1012   9.0163 C.3            1 <1>                0.0000
     13 C13         -0.3199 -16.3891  13.4569 C.2            1 <1>                0.0000
     14 O14         -1.4910 -16.7283  13.4505 O.co2          1 <1>                0.0000
     15 O15          0.0378 -15.4458  14.1416 O.co2          1 <1>               -1.0000
     16 C16          0.6449 -18.6005  12.9717 C.ar           1 <1>                0.0000
     17 C17          0.1175 -19.0050  14.1838 C.ar           1 <1>                0.0000
     18 C18          0.0803 -20.3483  14.5075 C.ar           1 <1>                0.0000
     19 C19          0.5702 -21.2872  13.6191 C.ar           1 <1>                0.0000
     20 C20          1.0967 -20.8828  12.4066 C.ar           1 <1>                0.0000
     21 C21          1.1300 -19.5397  12.0810 C.ar           1 <1>                0.0000
     22 H22          2.9087 -17.5656  15.9632 H              1 <1>                0.0000
     23 H23          2.0452 -18.5063  14.7232 H              1 <1>                0.0000
     24 H24          3.7244 -17.9892  14.4389 H              1 <1>                0.0000
     25 H25          2.1785 -15.5921  12.4495 H              1 <1>                0.0000
     26 H26          2.8301 -17.2485  12.4506 H              1 <1>                0.0000
     27 H27         -0.8696 -14.5947   7.0252 H              1 <1>                0.0000
     28 H28          0.5058 -13.4981   6.7528 H              1 <1>                0.0000
     29 H29          0.7699 -15.2570   6.8214 H              1 <1>                0.0000
     30 H30         -0.2410 -13.1055  10.3786 H              1 <1>                0.0000
     31 H31         -0.0847 -12.2417   8.8301 H              1 <1>                0.0000
     32 H32         -1.4599 -13.3383   9.1026 H              1 <1>                0.0000
     33 H33          2.4809 -14.9303   8.6125 H              1 <1>                0.0000
     34 H34          2.2167 -13.1713   8.5439 H              1 <1>                0.0000
     35 H35          2.0603 -14.0352  10.0924 H              1 <1>                0.0000
     36 H36         -0.2652 -18.2714  14.8780 H              1 <1>                0.0000
     37 H37         -0.3311 -20.6643  15.4548 H              1 <1>                0.0000
     38 H38          0.5417 -22.3367  13.8723 H              1 <1>                0.0000
     39 H39          1.4797 -21.6163  11.7126 H              1 <1>                0.0000
     40 H40          1.5413 -19.2237  11.1337 H              1 <1>                0.0000
     41 H41          0.1969 -17.7437  10.6439 H              1 <1>                0.0000
@<TRIPOS>BOND
    1    1    2 1     
    2    1   22 1     
    3    1   23 1     
    4    1   24 1     
    5    2    3 1     
    6    3    4 1     
    7    3   25 1     
    8    3   26 1     
    9    4    5 1     
   10    4   13 1     
   11    4   16 1     
   12    5    6 am    
   13    5   41 1     
   14    6    7 2     
   15    6    8 1     
   16    8    9 1     
   17    9   10 1     
   18    9   11 1     
   19    9   12 1     
   20   10   27 1     
   21   10   28 1     
   22   10   29 1     
   23   11   30 1     
   24   11   31 1     
   25   11   32 1     
   26   12   33 1     
   27   12   34 1     
   28   12   35 1     
   29   13   14 ar    
   30   13   15 ar    
   31   16   17 ar    
   32   16   21 ar    
   33   17   18 ar    
   34   17   36 1     
   35   18   19 ar    
   36   18   37 1     
   37   19   20 ar    
   38   19   38 1     
   39   20   21 ar    
   40   20   39 1     
   41   21   40 1     
@<TRIPOS>SUBSTRUCTURE
      1 ****           1
@<TRIPOS>SET
DONOR_HYDROGENS      STATIC     ATOMS    <user>   **** ""
1 41
ATOM$RED        STATIC     ATOMS    COLORGROUP SYSTEM
1 41
@<TRIPOS>COMMENT
> <Gold.Version>
2022.2.0

> <Gold.Id.Protein>
3pbl|protein|mol2

> <Gold.Protein.RotatedTorsions>
[ 1303 1298 1297 1294 ] final   40.78 input  179.99 | X-H torsion
[ 2461 2456 2455 2452 ] final -148.65 input   30.03 | X-H torsion
[ 2515 2510 2509 2506 ] final   15.77 input  -89.99 | X-H torsion
[ 3721 3712 3711 3710 ] final   85.84 input -179.91 | X-H torsion
[ 3841 3832 3831 3830 ] final   16.26 input -179.91 | X-H torsion
[ 3767 3762 3761 3758 ] final  -96.91 input  -89.99 | X-H torsion
[ 2472 2467 2466 2463 ] final   95.95 input  -89.97 | X-H torsion

> <Gold.Protein.ActiveResidues>
 VAL82   VAL86   LEU89   PHE106  VAL107  ASP110  VAL111  MET112  CYS114  THR115 
 CYS181  SER182  ILE183  PHE188  VAL189  ILE190  SER192  SER193  SER196  TRP342 
 PHE345  PHE346  HIS349  VAL350  TYR365  THR369  GLY372  TYR373 

> <Gold.Protein.RotatedAtoms>
    3.7566  -10.2392    4.4471 H   0  0  0  0  0  0  0  0  0  0  0  0  # atno 1303 bound_to 1298
    0.9567   -9.2862    8.2979 H   0  0  0  0  0  0  0  0  0  0  0  0  # atno 2461 bound_to 2456
   -5.1785   -4.9468    7.8483 H   0  0  0  0  0  0  0  0  0  0  0  0  # atno 2472 bound_to 2467
    2.4312   -7.4927    4.7983 H   0  0  0  0  0  0  0  0  0  0  0  0  # atno 2515 bound_to 2510
   -2.7538  -17.6632   13.1314 H   0  0  0  0  0  0  0  0  0  0  0  0  # atno 3721 bound_to 3712
   -5.1473  -21.9140   11.2949 H   0  0  0  0  0  0  0  0  0  0  0  0  # atno 3767 bound_to 3762
    1.8998  -20.6609    9.6135 H   0  0  0  0  0  0  0  0  0  0  0  0  # atno 3841 bound_to 3832
    3.6944   -8.7333    3.8189 LP  0  0  0  0  0  0  0  0  0  0  0  0  # atno 4297 bound_to 1298
    4.9113   -9.1485    4.8256 LP  0  0  0  0  0  0  0  0  0  0  0  0  # atno 4298 bound_to 1298
    2.1426   -8.3122    7.7388 LP  0  0  0  0  0  0  0  0  0  0  0  0  # atno 4299 bound_to 2456
    0.6384   -8.2099    7.1115 LP  0  0  0  0  0  0  0  0  0  0  0  0  # atno 4300 bound_to 2456
    2.7823   -9.0872    4.7805 LP  0  0  0  0  0  0  0  0  0  0  0  0  # atno 4301 bound_to 2510
    2.0832   -8.4196    6.0966 LP  0  0  0  0  0  0  0  0  0  0  0  0  # atno 4302 bound_to 2510
   -2.7899  -17.7783   14.7324 LP  0  0  0  0  0  0  0  0  0  0  0  0  # atno 4306 bound_to 3712
   -3.5584  -16.5555   13.9702 LP  0  0  0  0  0  0  0  0  0  0  0  0  # atno 4307 bound_to 3712
    1.9078  -19.6356    8.3787 LP  0  0  0  0  0  0  0  0  0  0  0  0  # atno 4314 bound_to 3832
    3.1269  -20.7032    8.5798 LP  0  0  0  0  0  0  0  0  0  0  0  0  # atno 4315 bound_to 3832
   -3.9084  -22.9747   11.2110 LP  0  0  0  0  0  0  0  0  0  0  0  0  # atno 4318 bound_to 3762
   -5.0719  -22.9861   10.0653 LP  0  0  0  0  0  0  0  0  0  0  0  0  # atno 4319 bound_to 3762
   -3.6496   -4.9841    8.4205 LP  0  0  0  0  0  0  0  0  0  0  0  0  # atno 4320 bound_to 2467
   -4.8889   -5.4626    9.3702 LP  0  0  0  0  0  0  0  0  0  0  0  0  # atno 4321 bound_to 2467

> <Gold.Score>
     Score     S(PLP)   S(hbond)     S(cho)   S(metal)  DE(clash)   DE(tors)     intcor
     40.78     -38.89       1.01       0.00       0.00       0.00       1.58       2.04

> <Gold.PLP.Fitness>
40.7832

> <Gold.PLP.PLP>
-38.8870

> <Gold.PLP.part.hbond>
0.0036

> <Gold.PLP.part.metal>
0.0000

> <Gold.PLP.part.buried>
-3.0689

> <Gold.PLP.part.nonpolar>
-37.1121

> <Gold.PLP.part.repulsive>
0.3626

> <Gold.PLP.ligand.clash>
0.0010

> <Gold.PLP.ligand.torsion>
1.5801

> <Gold.PLP.Chemscore.Hbond>
1.0065

> <Gold.PLP.Chemscore.CHOScore>
0.0000

> <Gold.PLP.Chemscore.Metal>
0.0000

> <Gold.Chemscore.Hbonds>
donor molecule, donor type, donor heavy atom, donor atom, acceptor molecule, acceptor atom, score
      P1  H  2305  2313       L1    15  0.94
      P1  H  3712  3721       L1    14  0.06

> <Gold.PLP.Chemscore.Internal.Correction>
2.0378

