#       Name:                EN300-1071101_i001
#       Creating user name   fsindt
#       Creation time:       Wed Mar  1 13:03:50 2023


#       File generated by GOLD software.
#

@<TRIPOS>MOLECULE
EN300-1071101_i001|acide_1|mol2|8527|dock1
    41    41     1
SMALL
USER_CHARGES


@<TRIPOS>ATOM
      1 C1           0.1523 -20.3417  16.1387 C.3            1 <1>                0.0000
      2 O2           0.8265 -19.2980  15.4329 O.3            1 <1>                0.0000
      3 C3           1.3914 -19.7099  14.1866 C.3            1 <1>                0.0000
      4 C4           0.4572 -19.3051  13.0446 C.3            1 <1>                0.0000
      5 N5          -0.8636 -19.9013  13.2594 N.am           1 <1>                0.0000
      6 C6          -1.0070 -21.2414  13.2534 C.2            1 <1>                0.0000
      7 O7          -0.0408 -21.9551  13.0699 O.2            1 <1>                0.0000
      8 O8          -2.2209 -21.7894  13.4509 O.3            1 <1>                0.0000
      9 C9          -2.2629 -23.2118  13.7398 C.3            1 <1>                0.0000
     10 C10         -3.6944 -23.6179  14.0955 C.3            1 <1>                0.0000
     11 C11         -1.8010 -23.9958  12.5098 C.3            1 <1>                0.0000
     12 C12         -1.3374 -23.5204  14.9184 C.3            1 <1>                0.0000
     13 C13          1.0222 -19.7941  11.7360 C.2            1 <1>                0.0000
     14 O14          2.1194 -20.3249  11.7060 O.co2          1 <1>                0.0000
     15 O15          0.3822 -19.6589  10.7071 O.co2          1 <1>               -1.0000
     16 C16          0.3305 -17.8038  13.0075 C.ar           1 <1>                0.0000
     17 C17         -0.5777 -17.2077  12.1527 C.ar           1 <1>                0.0000
     18 C18         -0.6938 -15.8307  12.1186 C.ar           1 <1>                0.0000
     19 C19          0.0980 -15.0498  12.9394 C.ar           1 <1>                0.0000
     20 C20          1.0056 -15.6459  13.7949 C.ar           1 <1>                0.0000
     21 C21          1.1188 -17.0231  13.8321 C.ar           1 <1>                0.0000
     22 H22         -0.2480 -19.9486  17.0732 H              1 <1>                0.0000
     23 H23         -0.6639 -20.7257  15.5268 H              1 <1>                0.0000
     24 H24          0.8546 -21.1470  16.3544 H              1 <1>                0.0000
     25 H25          2.3606 -19.2301  14.0507 H              1 <1>                0.0000
     26 H26          1.5186 -20.7925  14.1855 H              1 <1>                0.0000
     27 H27         -4.3538 -23.3981  13.2558 H              1 <1>                0.0000
     28 H28         -3.7260 -24.6857  14.3124 H              1 <1>                0.0000
     29 H29         -4.0235 -23.0593  14.9717 H              1 <1>                0.0000
     30 H30         -0.7811 -23.7065  12.2564 H              1 <1>                0.0000
     31 H31         -1.8326 -25.0636  12.7266 H              1 <1>                0.0000
     32 H32         -2.4603 -23.7760  11.6701 H              1 <1>                0.0000
     33 H33         -1.6664 -22.9618  15.7946 H              1 <1>                0.0000
     34 H34         -1.3690 -24.5882  15.1353 H              1 <1>                0.0000
     35 H35         -0.3175 -23.2311  14.6649 H              1 <1>                0.0000
     36 H36         -1.1965 -17.8179  11.5112 H              1 <1>                0.0000
     37 H37         -1.4030 -15.3650  11.4503 H              1 <1>                0.0000
     38 H38          0.0078 -13.9739  12.9123 H              1 <1>                0.0000
     39 H39          1.6245 -15.0357  14.4360 H              1 <1>                0.0000
     40 H40          1.8278 -17.4888  14.5005 H              1 <1>                0.0000
     41 H41         -1.6350 -19.3316  13.4059 H              1 <1>                0.0000
@<TRIPOS>BOND
    1    1    2 1     
    2    1   22 1     
    3    1   23 1     
    4    1   24 1     
    5    2    3 1     
    6    3    4 1     
    7    3   25 1     
    8    3   26 1     
    9    4    5 1     
   10    4   13 1     
   11    4   16 1     
   12    5    6 am    
   13    5   41 1     
   14    6    7 2     
   15    6    8 1     
   16    8    9 1     
   17    9   10 1     
   18    9   11 1     
   19    9   12 1     
   20   10   27 1     
   21   10   28 1     
   22   10   29 1     
   23   11   30 1     
   24   11   31 1     
   25   11   32 1     
   26   12   33 1     
   27   12   34 1     
   28   12   35 1     
   29   13   14 ar    
   30   13   15 ar    
   31   16   17 ar    
   32   16   21 ar    
   33   17   18 ar    
   34   17   36 1     
   35   18   19 ar    
   36   18   37 1     
   37   19   20 ar    
   38   19   38 1     
   39   20   21 ar    
   40   20   39 1     
   41   21   40 1     
@<TRIPOS>SUBSTRUCTURE
      1 ****           1
@<TRIPOS>SET
DONOR_HYDROGENS      STATIC     ATOMS    <user>   **** ""
1 41
ATOM$RED        STATIC     ATOMS    COLORGROUP SYSTEM
1 41
@<TRIPOS>COMMENT
> <Gold.Version>
2022.2.0

> <Gold.Id.Protein>
3pbl|protein|mol2

> <Gold.Protein.RotatedTorsions>
[ 1303 1298 1297 1294 ] final    9.35 input  179.99 | X-H torsion
[ 2461 2456 2455 2452 ] final  -92.19 input   30.03 | X-H torsion
[ 2515 2510 2509 2506 ] final  128.67 input  -89.99 | X-H torsion
[ 3721 3712 3711 3710 ] final  159.19 input -179.91 | X-H torsion
[ 3841 3832 3831 3830 ] final  -14.18 input -179.91 | X-H torsion
[ 3767 3762 3761 3758 ] final  -74.00 input  -89.99 | X-H torsion
[ 2472 2467 2466 2463 ] final  -18.66 input  -89.97 | X-H torsion

> <Gold.Protein.ActiveResidues>
 VAL82   VAL86   LEU89   PHE106  VAL107  ASP110  VAL111  MET112  CYS114  THR115 
 CYS181  SER182  ILE183  PHE188  VAL189  ILE190  SER192  SER193  SER196  TRP342 
 PHE345  PHE346  HIS349  VAL350  TYR365  THR369  GLY372  TYR373 

> <Gold.Protein.RotatedAtoms>
    3.4437   -9.9873    4.1319 H   0  0  0  0  0  0  0  0  0  0  0  0  # atno 1303 bound_to 1298
    0.3620   -8.9310    7.7355 H   0  0  0  0  0  0  0  0  0  0  0  0  # atno 2461 bound_to 2456
   -3.6693   -4.9574    8.3383 H   0  0  0  0  0  0  0  0  0  0  0  0  # atno 2472 bound_to 2467
    2.0611   -8.3051    6.0909 H   0  0  0  0  0  0  0  0  0  0  0  0  # atno 2515 bound_to 2510
   -3.2518  -16.7699   13.2886 H   0  0  0  0  0  0  0  0  0  0  0  0  # atno 3721 bound_to 3712
   -5.3742  -21.9727   11.0028 H   0  0  0  0  0  0  0  0  0  0  0  0  # atno 3767 bound_to 3762
    1.6341  -20.3200    9.4728 H   0  0  0  0  0  0  0  0  0  0  0  0  # atno 3841 bound_to 3832
    4.1046   -8.4988    4.0129 LP  0  0  0  0  0  0  0  0  0  0  0  0  # atno 4297 bound_to 1298
    4.8141   -9.6350    4.9469 LP  0  0  0  0  0  0  0  0  0  0  0  0  # atno 4298 bound_to 1298
    1.8945   -8.9602    8.2995 LP  0  0  0  0  0  0  0  0  0  0  0  0  # atno 4299 bound_to 2456
    1.4810   -7.9171    7.1131 LP  0  0  0  0  0  0  0  0  0  0  0  0  # atno 4300 bound_to 2456
    2.4810   -7.5465    4.7074 LP  0  0  0  0  0  0  0  0  0  0  0  0  # atno 4301 bound_to 2510
    2.7549   -9.1475    4.8765 LP  0  0  0  0  0  0  0  0  0  0  0  0  # atno 4302 bound_to 2510
   -2.6407  -18.2019   13.6806 LP  0  0  0  0  0  0  0  0  0  0  0  0  # atno 4306 bound_to 3712
   -3.1327  -17.1633   14.8406 LP  0  0  0  0  0  0  0  0  0  0  0  0  # atno 4307 bound_to 3712
    2.3592  -19.7184    8.1735 LP  0  0  0  0  0  0  0  0  0  0  0  0  # atno 4314 bound_to 3832
    2.9826  -21.0141    8.9476 LP  0  0  0  0  0  0  0  0  0  0  0  0  # atno 4315 bound_to 3832
   -3.9886  -22.7063   11.4595 LP  0  0  0  0  0  0  0  0  0  0  0  0  # atno 4318 bound_to 3762
   -4.7648  -23.1959   10.1088 LP  0  0  0  0  0  0  0  0  0  0  0  0  # atno 4319 bound_to 3762
   -4.8043   -5.4632    9.3977 LP  0  0  0  0  0  0  0  0  0  0  0  0  # atno 4320 bound_to 2467
   -5.2431   -4.9729    7.9031 LP  0  0  0  0  0  0  0  0  0  0  0  0  # atno 4321 bound_to 2467

> <Gold.Score>
     Score     S(PLP)   S(hbond)     S(cho)   S(metal)  DE(clash)   DE(tors)     intcor
     43.63     -40.80       1.00       0.00       0.00       1.04       0.73       2.33

> <Gold.PLP.Fitness>
43.6346

> <Gold.PLP.PLP>
-40.8039

> <Gold.PLP.part.hbond>
-2.0000

> <Gold.PLP.part.metal>
0.0000

> <Gold.PLP.part.buried>
-5.3171

> <Gold.PLP.part.nonpolar>
-35.1782

> <Gold.PLP.part.repulsive>
0.3172

> <Gold.PLP.ligand.clash>
1.0425

> <Gold.PLP.ligand.torsion>
0.7282

> <Gold.PLP.Chemscore.Hbond>
1.0000

> <Gold.PLP.Chemscore.CHOScore>
0.0000

> <Gold.PLP.Chemscore.Metal>
0.0000

> <Gold.Chemscore.Hbonds>
donor molecule, donor type, donor heavy atom, donor atom, acceptor molecule, acceptor atom, score
      P1  H  3832  3841       L1    15  1.00

> <Gold.PLP.Chemscore.Internal.Correction>
2.3295

