#       Name:                EN300-1071101_i001
#       Creating user name   fsindt
#       Creation time:       Wed Mar  1 13:03:51 2023


#       File generated by GOLD software.
#

@<TRIPOS>MOLECULE
EN300-1071101_i001|acide_1|mol2|8527|dock2
    41    41     1
SMALL
USER_CHARGES


@<TRIPOS>ATOM
      1 C1           1.9038 -22.8534  14.4006 C.3            1 <1>                0.0000
      2 O2           1.9028 -21.7292  13.5185 O.3            1 <1>                0.0000
      3 C3           1.4150 -20.5246  14.1126 C.3            1 <1>                0.0000
      4 C4           0.4398 -19.8408  13.1523 C.3            1 <1>                0.0000
      5 N5          -0.9310 -20.2364  13.4845 N.am           1 <1>                0.0000
      6 C6          -1.2906 -21.5341  13.4266 C.2            1 <1>                0.0000
      7 O7          -0.4778 -22.3758  13.0989 O.2            1 <1>                0.0000
      8 O8          -2.5505 -21.8977  13.7320 O.3            1 <1>                0.0000
      9 C9          -2.7858 -23.3073  13.9891 C.3            1 <1>                0.0000
     10 C10         -4.2176 -23.5019  14.4919 C.3            1 <1>                0.0000
     11 C11         -2.5866 -24.1015  12.6967 C.3            1 <1>                0.0000
     12 C12         -1.8009 -23.8036  15.0496 C.3            1 <1>                0.0000
     13 C13          0.7536 -20.2557  11.7379 C.2            1 <1>                0.0000
     14 O14         -0.1269 -20.7066  11.0253 O.co2          1 <1>                0.0000
     15 O15          1.8880 -20.1404  11.3063 O.co2          1 <1>               -1.0000
     16 C16          0.5757 -18.3452  13.2789 C.ar           1 <1>                0.0000
     17 C17         -0.3523 -17.5137  12.6802 C.ar           1 <1>                0.0000
     18 C18         -0.2276 -16.1420  12.7964 C.ar           1 <1>                0.0000
     19 C19          0.8247 -15.6017  13.5115 C.ar           1 <1>                0.0000
     20 C20          1.7521 -16.4331  14.1109 C.ar           1 <1>                0.0000
     21 C21          1.6252 -17.8050  13.9985 C.ar           1 <1>                0.0000
     22 H22          2.2877 -23.7275  13.8747 H              1 <1>                0.0000
     23 H23          2.5378 -22.6395  15.2610 H              1 <1>                0.0000
     24 H24          0.8865 -23.0506  14.7390 H              1 <1>                0.0000
     25 H25          0.9016 -20.7611  15.0445 H              1 <1>                0.0000
     26 H26          2.2513 -19.8563  14.3180 H              1 <1>                0.0000
     27 H27         -4.9192 -23.1483  13.7364 H              1 <1>                0.0000
     28 H28         -4.3942 -24.5601  14.6850 H              1 <1>                0.0000
     29 H29         -4.3594 -22.9360  15.4126 H              1 <1>                0.0000
     30 H30         -1.5665 -23.9628  12.3385 H              1 <1>                0.0000
     31 H31         -2.7633 -25.1597  12.8897 H              1 <1>                0.0000
     32 H32         -3.2882 -23.7479  11.9412 H              1 <1>                0.0000
     33 H33         -1.9427 -23.2377  15.9703 H              1 <1>                0.0000
     34 H34         -1.9776 -24.8618  15.2426 H              1 <1>                0.0000
     35 H35         -0.7808 -23.6649  14.6914 H              1 <1>                0.0000
     36 H36         -1.1745 -17.9358  12.1214 H              1 <1>                0.0000
     37 H37         -0.9523 -15.4923  12.3280 H              1 <1>                0.0000
     38 H38          0.9225 -14.5298  13.6016 H              1 <1>                0.0000
     39 H39          2.5745 -16.0109  14.6694 H              1 <1>                0.0000
     40 H40          2.3497 -18.4546  14.4668 H              1 <1>                0.0000
     41 H41         -1.5799 -19.5645  13.7461 H              1 <1>                0.0000
@<TRIPOS>BOND
    1    1    2 1     
    2    1   22 1     
    3    1   23 1     
    4    1   24 1     
    5    2    3 1     
    6    3    4 1     
    7    3   25 1     
    8    3   26 1     
    9    4    5 1     
   10    4   13 1     
   11    4   16 1     
   12    5    6 am    
   13    5   41 1     
   14    6    7 2     
   15    6    8 1     
   16    8    9 1     
   17    9   10 1     
   18    9   11 1     
   19    9   12 1     
   20   10   27 1     
   21   10   28 1     
   22   10   29 1     
   23   11   30 1     
   24   11   31 1     
   25   11   32 1     
   26   12   33 1     
   27   12   34 1     
   28   12   35 1     
   29   13   14 ar    
   30   13   15 ar    
   31   16   17 ar    
   32   16   21 ar    
   33   17   18 ar    
   34   17   36 1     
   35   18   19 ar    
   36   18   37 1     
   37   19   20 ar    
   38   19   38 1     
   39   20   21 ar    
   40   20   39 1     
   41   21   40 1     
@<TRIPOS>SUBSTRUCTURE
      1 ****           1
@<TRIPOS>SET
DONOR_HYDROGENS      STATIC     ATOMS    <user>   **** ""
1 41
ATOM$RED        STATIC     ATOMS    COLORGROUP SYSTEM
1 41
@<TRIPOS>COMMENT
> <Gold.Version>
2022.2.0

> <Gold.Id.Protein>
3pbl|protein|mol2

> <Gold.Protein.RotatedTorsions>
[ 1303 1298 1297 1294 ] final -178.50 input  179.99 | X-H torsion
[ 2461 2456 2455 2452 ] final  -31.54 input   30.03 | X-H torsion
[ 2515 2510 2509 2506 ] final  154.89 input  -89.99 | X-H torsion
[ 3721 3712 3711 3710 ] final   32.80 input -179.91 | X-H torsion
[ 3841 3832 3831 3830 ] final   -2.72 input -179.91 | X-H torsion
[ 3767 3762 3761 3758 ] final -129.13 input  -89.99 | X-H torsion
[ 2472 2467 2466 2463 ] final   73.32 input  -89.97 | X-H torsion

> <Gold.Protein.ActiveResidues>
 VAL82   VAL86   LEU89   PHE106  VAL107  ASP110  VAL111  MET112  CYS114  THR115 
 CYS181  SER182  ILE183  PHE188  VAL189  ILE190  SER192  SER193  SER196  TRP342 
 PHE345  PHE346  HIS349  VAL350  TYR365  THR369  GLY372  TYR373 

> <Gold.Protein.RotatedAtoms>
    4.8470   -8.8554    4.6678 H   0  0  0  0  0  0  0  0  0  0  0  0  # atno 1303 bound_to 1298
    0.6045   -8.2386    7.1284 H   0  0  0  0  0  0  0  0  0  0  0  0  # atno 2461 bound_to 2456
   -4.8567   -4.8547    7.6910 H   0  0  0  0  0  0  0  0  0  0  0  0  # atno 2472 bound_to 2467
    2.1691   -8.7162    6.0449 H   0  0  0  0  0  0  0  0  0  0  0  0  # atno 2515 bound_to 2510
   -2.4882  -18.0295   13.7586 H   0  0  0  0  0  0  0  0  0  0  0  0  # atno 3721 bound_to 3712
   -4.7214  -22.0200   11.5802 H   0  0  0  0  0  0  0  0  0  0  0  0  # atno 3767 bound_to 3762
    1.7139  -20.4555    9.5446 H   0  0  0  0  0  0  0  0  0  0  0  0  # atno 3841 bound_to 3832
    4.0289  -10.2684    4.6470 LP  0  0  0  0  0  0  0  0  0  0  0  0  # atno 4297 bound_to 1298
    3.4861   -8.9977    3.7767 LP  0  0  0  0  0  0  0  0  0  0  0  0  # atno 4298 bound_to 1298
    1.0009   -9.2882    8.3152 LP  0  0  0  0  0  0  0  0  0  0  0  0  # atno 4299 bound_to 2456
    2.1322   -8.2813    7.7043 LP  0  0  0  0  0  0  0  0  0  0  0  0  # atno 4300 bound_to 2456
    2.2989   -7.4126    5.0705 LP  0  0  0  0  0  0  0  0  0  0  0  0  # atno 4301 bound_to 2510
    2.8288   -8.8702    4.5594 LP  0  0  0  0  0  0  0  0  0  0  0  0  # atno 4302 bound_to 2510
   -3.2098  -17.0361   14.7932 LP  0  0  0  0  0  0  0  0  0  0  0  0  # atno 4306 bound_to 3712
   -3.4452  -16.8748   13.1853 LP  0  0  0  0  0  0  0  0  0  0  0  0  # atno 4307 bound_to 3712
    2.1856  -19.6628    8.2311 LP  0  0  0  0  0  0  0  0  0  0  0  0  # atno 4314 bound_to 3832
    3.0639  -20.9133    8.8070 LP  0  0  0  0  0  0  0  0  0  0  0  0  # atno 4315 bound_to 3832
   -4.0084  -23.2507   10.7779 LP  0  0  0  0  0  0  0  0  0  0  0  0  # atno 4318 bound_to 3762
   -5.3975  -22.6041   10.2133 LP  0  0  0  0  0  0  0  0  0  0  0  0  # atno 4319 bound_to 3762
   -3.6563   -5.1101    8.7682 LP  0  0  0  0  0  0  0  0  0  0  0  0  # atno 4320 bound_to 2467
   -5.2041   -5.4287    9.1798 LP  0  0  0  0  0  0  0  0  0  0  0  0  # atno 4321 bound_to 2467

> <Gold.Score>
     Score     S(PLP)   S(hbond)     S(cho)   S(metal)  DE(clash)   DE(tors)     intcor
     42.09     -40.99       0.99       0.00       0.00       0.72       1.74       2.33

> <Gold.PLP.Fitness>
42.0872

> <Gold.PLP.PLP>
-40.9851

> <Gold.PLP.part.hbond>
-1.3767

> <Gold.PLP.part.metal>
0.0000

> <Gold.PLP.part.buried>
-1.6964

> <Gold.PLP.part.nonpolar>
-39.0340

> <Gold.PLP.part.repulsive>
0.1724

> <Gold.PLP.ligand.clash>
0.7239

> <Gold.PLP.ligand.torsion>
1.7398

> <Gold.PLP.Chemscore.Hbond>
0.9920

> <Gold.PLP.Chemscore.CHOScore>
0.0000

> <Gold.PLP.Chemscore.Metal>
0.0000

> <Gold.Chemscore.Hbonds>
donor molecule, donor type, donor heavy atom, donor atom, acceptor molecule, acceptor atom, score
      P1  H  3832  3841       L1    15  0.99

> <Gold.PLP.Chemscore.Internal.Correction>
2.3295

