#       Name:                EN300-1071101_i001
#       Creating user name   fsindt
#       Creation time:       Wed Mar  1 13:03:55 2023


#       File generated by GOLD software.
#

@<TRIPOS>MOLECULE
EN300-1071101_i001|acide_1|mol2|8527|dock6
    41    41     1
SMALL
USER_CHARGES


@<TRIPOS>ATOM
      1 C1           2.5633 -17.3656  14.9842 C.3            1 <1>                0.0000
      2 O2           2.3087 -18.1611  13.8246 O.3            1 <1>                0.0000
      3 C3           1.2902 -19.1465  14.0079 C.3            1 <1>                0.0000
      4 C4           0.1932 -18.9470  12.9603 C.3            1 <1>                0.0000
      5 N5          -1.0539 -19.5489  13.4383 N.am           1 <1>                0.0000
      6 C6          -1.1150 -20.8744  13.6749 C.2            1 <1>                0.0000
      7 O7          -0.1356 -21.5700  13.4917 O.2            1 <1>                0.0000
      8 O8          -2.2611 -21.4277  14.1142 O.3            1 <1>                0.0000
      9 C9          -2.3549 -22.8759  14.0658 C.3            1 <1>                0.0000
     10 C10         -3.7709 -23.3084  14.4515 C.3            1 <1>                0.0000
     11 C11         -2.0420 -23.3601  12.6486 C.3            1 <1>                0.0000
     12 C12         -1.3507 -23.4851  15.0462 C.3            1 <1>                0.0000
     13 C13          0.6060 -19.6051  11.6690 C.2            1 <1>                0.0000
     14 O14         -0.1690 -19.6420  10.7285 O.co2          1 <1>                0.0000
     15 O15          1.7151 -20.1006  11.5648 O.co2          1 <1>               -1.0000
     16 C16         -0.0174 -17.4729  12.7280 C.ar           1 <1>                0.0000
     17 C17         -0.1308 -16.9855  11.4394 C.ar           1 <1>                0.0000
     18 C18         -0.3239 -15.6335  11.2263 C.ar           1 <1>                0.0000
     19 C19         -0.4038 -14.7688  12.3018 C.ar           1 <1>                0.0000
     20 C20         -0.2914 -15.2562  13.5904 C.ar           1 <1>                0.0000
     21 C21         -0.1026 -16.6089  13.8037 C.ar           1 <1>                0.0000
     22 H22          3.3482 -16.6423  14.7635 H              1 <1>                0.0000
     23 H23          1.6532 -16.8383  15.2700 H              1 <1>                0.0000
     24 H24          2.8826 -18.0096  15.8036 H              1 <1>                0.0000
     25 H25          1.7225 -20.1409  13.8966 H              1 <1>                0.0000
     26 H26          0.8626 -19.0458  15.0054 H              1 <1>                0.0000
     27 H27         -4.4863 -22.8744  13.7530 H              1 <1>                0.0000
     28 H28         -3.8414 -24.3955  14.4152 H              1 <1>                0.0000
     29 H29         -3.9938 -22.9634  15.4611 H              1 <1>                0.0000
     30 H30         -1.0332 -23.0519  12.3738 H              1 <1>                0.0000
     31 H31         -2.1125 -24.4472  12.6122 H              1 <1>                0.0000
     32 H32         -2.7574 -22.9260  11.9501 H              1 <1>                0.0000
     33 H33         -1.5736 -23.1401  16.0558 H              1 <1>                0.0000
     34 H34         -1.4211 -24.5723  15.0099 H              1 <1>                0.0000
     35 H35         -0.3419 -23.1770  14.7714 H              1 <1>                0.0000
     36 H36         -0.0683 -17.6611  10.5990 H              1 <1>                0.0000
     37 H37         -0.4118 -15.2526  10.2194 H              1 <1>                0.0000
     38 H38         -0.5540 -13.7123  12.1352 H              1 <1>                0.0000
     39 H39         -0.3536 -14.5805  14.4306 H              1 <1>                0.0000
     40 H40         -0.0147 -16.9897  14.8105 H              1 <1>                0.0000
     41 H41         -1.8357 -18.9937  13.5845 H              1 <1>                0.0000
@<TRIPOS>BOND
    1    1    2 1     
    2    1   22 1     
    3    1   23 1     
    4    1   24 1     
    5    2    3 1     
    6    3    4 1     
    7    3   25 1     
    8    3   26 1     
    9    4    5 1     
   10    4   13 1     
   11    4   16 1     
   12    5    6 am    
   13    5   41 1     
   14    6    7 2     
   15    6    8 1     
   16    8    9 1     
   17    9   10 1     
   18    9   11 1     
   19    9   12 1     
   20   10   27 1     
   21   10   28 1     
   22   10   29 1     
   23   11   30 1     
   24   11   31 1     
   25   11   32 1     
   26   12   33 1     
   27   12   34 1     
   28   12   35 1     
   29   13   14 ar    
   30   13   15 ar    
   31   16   17 ar    
   32   16   21 ar    
   33   17   18 ar    
   34   17   36 1     
   35   18   19 ar    
   36   18   37 1     
   37   19   20 ar    
   38   19   38 1     
   39   20   21 ar    
   40   20   39 1     
   41   21   40 1     
@<TRIPOS>SUBSTRUCTURE
      1 ****           1
@<TRIPOS>SET
DONOR_HYDROGENS      STATIC     ATOMS    <user>   **** ""
1 41
ATOM$RED        STATIC     ATOMS    COLORGROUP SYSTEM
1 41
@<TRIPOS>COMMENT
> <Gold.Version>
2022.2.0

> <Gold.Id.Protein>
3pbl|protein|mol2

> <Gold.Protein.RotatedTorsions>
[ 1303 1298 1297 1294 ] final  130.14 input  179.99 | X-H torsion
[ 2461 2456 2455 2452 ] final   64.00 input   30.03 | X-H torsion
[ 2515 2510 2509 2506 ] final   98.73 input  -89.99 | X-H torsion
[ 3721 3712 3711 3710 ] final  -86.43 input -179.91 | X-H torsion
[ 3841 3832 3831 3830 ] final    9.27 input -179.91 | X-H torsion
[ 3767 3762 3761 3758 ] final -160.19 input  -89.99 | X-H torsion
[ 2472 2467 2466 2463 ] final  -32.75 input  -89.97 | X-H torsion

> <Gold.Protein.ActiveResidues>
 VAL82   VAL86   LEU89   PHE106  VAL107  ASP110  VAL111  MET112  CYS114  THR115 
 CYS181  SER182  ILE183  PHE188  VAL189  ILE190  SER192  SER193  SER196  TRP342 
 PHE345  PHE346  HIS349  VAL350  TYR365  THR369  GLY372  TYR373 

> <Gold.Protein.RotatedAtoms>
    4.8188   -9.6230    4.9461 H   0  0  0  0  0  0  0  0  0  0  0  0  # atno 1303 bound_to 1298
    1.9581   -8.0591    7.4216 H   0  0  0  0  0  0  0  0  0  0  0  0  # atno 2461 bound_to 2456
   -3.6348   -5.0316    8.5546 H   0  0  0  0  0  0  0  0  0  0  0  0  # atno 2472 bound_to 2467
    2.0317   -7.8476    5.9266 H   0  0  0  0  0  0  0  0  0  0  0  0  # atno 2515 bound_to 2510
   -2.9987  -16.9917   14.7051 H   0  0  0  0  0  0  0  0  0  0  0  0  # atno 3721 bound_to 3712
   -4.3058  -22.2993   11.6447 H   0  0  0  0  0  0  0  0  0  0  0  0  # atno 3767 bound_to 3762
    1.8245  -20.5891    9.5959 H   0  0  0  0  0  0  0  0  0  0  0  0  # atno 3841 bound_to 3832
    3.4495   -9.9965    4.1388 LP  0  0  0  0  0  0  0  0  0  0  0  0  # atno 4297 bound_to 1298
    4.0936   -8.5017    4.0064 LP  0  0  0  0  0  0  0  0  0  0  0  0  # atno 4298 bound_to 1298
    0.3918   -8.5121    7.3273 LP  0  0  0  0  0  0  0  0  0  0  0  0  # atno 4299 bound_to 2456
    1.3881   -9.2368    8.3991 LP  0  0  0  0  0  0  0  0  0  0  0  0  # atno 4300 bound_to 2456
    2.6745   -7.8943    4.4265 LP  0  0  0  0  0  0  0  0  0  0  0  0  # atno 4301 bound_to 2510
    2.5907   -9.2574    5.3218 LP  0  0  0  0  0  0  0  0  0  0  0  0  # atno 4302 bound_to 2510
   -3.4326  -16.9004   13.1620 LP  0  0  0  0  0  0  0  0  0  0  0  0  # atno 4306 bound_to 3712
   -2.6330  -18.2087   13.7238 LP  0  0  0  0  0  0  0  0  0  0  0  0  # atno 4307 bound_to 3712
    2.0072  -19.6359    8.3176 LP  0  0  0  0  0  0  0  0  0  0  0  0  # atno 4314 bound_to 3832
    3.1146  -20.7858    8.6614 LP  0  0  0  0  0  0  0  0  0  0  0  0  # atno 4315 bound_to 3832
   -4.3100  -23.3349   10.3821 LP  0  0  0  0  0  0  0  0  0  0  0  0  # atno 4318 bound_to 3762
   -5.5113  -22.2408   10.5446 LP  0  0  0  0  0  0  0  0  0  0  0  0  # atno 4319 bound_to 3762
   -5.0186   -5.4555    9.3109 LP  0  0  0  0  0  0  0  0  0  0  0  0  # atno 4320 bound_to 2467
   -5.0634   -4.9064    7.7736 LP  0  0  0  0  0  0  0  0  0  0  0  0  # atno 4321 bound_to 2467

> <Gold.Score>
     Score     S(PLP)   S(hbond)     S(cho)   S(metal)  DE(clash)   DE(tors)     intcor
     43.24     -39.25       1.94       0.00       0.00       0.80       1.54       2.04

> <Gold.PLP.Fitness>
43.2368

> <Gold.PLP.PLP>
-39.2533

> <Gold.PLP.part.hbond>
-2.5228

> <Gold.PLP.part.metal>
0.0000

> <Gold.PLP.part.buried>
-4.8557

> <Gold.PLP.part.nonpolar>
-32.5915

> <Gold.PLP.part.repulsive>
0.2629

> <Gold.PLP.ligand.clash>
0.7975

> <Gold.PLP.ligand.torsion>
1.5422

> <Gold.PLP.Chemscore.Hbond>
1.9425

> <Gold.PLP.Chemscore.CHOScore>
0.0000

> <Gold.PLP.Chemscore.Metal>
0.0000

> <Gold.Chemscore.Hbonds>
donor molecule, donor type, donor heavy atom, donor atom, acceptor molecule, acceptor atom, score
      L1  H     5    41       P1  3712  0.94
      P1  H  3832  3841       L1    15  1.00

> <Gold.PLP.Chemscore.Internal.Correction>
2.0378

