#       Name:                plp ligand
#       Creating user name   fsindt
#       Creation time:       Wed Mar  1 13:03:49 2023


#       File generated by GOLD software.
#

@<TRIPOS>MOLECULE
plp ligand
    41    41     1
SMALL
USER_CHARGES


@<TRIPOS>ATOM
      1 C1           1.0726   3.4373   0.1328 NONPOLAR       1 <1>                0.0000
      2 O2           1.1479   2.0363  -0.1387 ACCEPTOR       1 <1>                0.0000
      3 C3           1.1173   1.2152   1.0304 NONPOLAR       1 <1>                0.0000
      4 C4           1.2033  -0.2568   0.6221 NONPOLAR       1 <1>                0.0000
      5 N5           0.1360  -0.5616  -0.3340 DONOR          1 <1>                0.0000
      6 C6          -1.1538  -0.3970   0.0209 NONPOLAR       1 <1>                0.0000
      7 O7          -1.4313   0.0042   1.1338 ACCEPTOR       1 <1>                0.0000
      8 O8          -2.1347  -0.6771  -0.8578 ACCEPTOR       1 <1>                0.0000
      9 C9          -3.5004  -0.4764  -0.4072 NONPOLAR       1 <1>                0.0000
     10 C10         -3.7000   0.9908  -0.0222 NONPOLAR       1 <1>                0.0000
     11 C11         -4.4683  -0.8444  -1.5335 NONPOLAR       1 <1>                0.0000
     12 C12         -3.7719  -1.3643   0.8089 NONPOLAR       1 <1>                0.0000
     13 C13          1.0477  -1.1266   1.8428 NONPOLAR       1 <1>                0.0000
     14 O14          0.1303  -1.9270   1.9082 ACCEPTOR       1 <1>                0.0000
     15 O15          1.8393  -1.0300   2.7651 ACCEPTOR       1 <1>               -1.0000
     16 C16          2.5417  -0.5233  -0.0174 NONPOLAR       1 <1>                0.0000
     17 C17          2.6626  -1.5034  -0.9847 NONPOLAR       1 <1>                0.0000
     18 C18          3.8902  -1.7479  -1.5712 NONPOLAR       1 <1>                0.0000
     19 C19          4.9968  -1.0121  -1.1907 NONPOLAR       1 <1>                0.0000
     20 C20          4.8757  -0.0314  -0.2241 NONPOLAR       1 <1>                0.0000
     21 C21          3.6472   0.2161   0.3594 NONPOLAR       1 <1>                0.0000
     22 H22          1.1016   3.9913  -0.8054                1 <1>                0.0000
     23 H23          0.1416   3.6565   0.6556                1 <1>                0.0000
     24 H24          1.9171   3.7326   0.7555                1 <1>                0.0000
     25 H25          1.9627   1.4644   1.6717                1 <1>                0.0000
     26 H26          0.1872   1.3883   1.5717                1 <1>                0.0000
     27 H27         -3.5066   1.6233  -0.8886                1 <1>                0.0000
     28 H28         -4.7252   1.1415   0.3161                1 <1>                0.0000
     29 H29         -3.0104   1.2529   0.7802                1 <1>                0.0000
     30 H30         -4.3261  -1.8897  -1.8078                1 <1>                0.0000
     31 H31         -5.4935  -0.6937  -1.1953                1 <1>                0.0000
     32 H32         -4.2749  -0.2119  -2.3999                1 <1>                0.0000
     33 H33         -3.0823  -1.1022   1.6113                1 <1>                0.0000
     34 H34         -4.7971  -1.2136   1.1472                1 <1>                0.0000
     35 H35         -3.6297  -2.4096   0.5346                1 <1>                0.0000
     36 H36          1.7980  -2.0784  -1.2820                1 <1>                0.0000
     37 H37          3.9848  -2.5141  -2.3265                1 <1>                0.0000
     38 H38          5.9561  -1.2036  -1.6485                1 <1>                0.0000
     39 H39          5.7404   0.5433   0.0734                1 <1>                0.0000
     40 H40          3.5526   0.9823   1.1146                1 <1>                0.0000
     41 H41          0.3575  -0.8819  -1.2224                1 <1>                0.0000
@<TRIPOS>BOND
    1    1    2 1     
    2    1   22 1     
    3    1   23 1     
    4    1   24 1     
    5    2    3 1     
    6    3    4 1     
    7    3   25 1     
    8    3   26 1     
    9    4    5 1     
   10    4   13 1     
   11    4   16 1     
   12    5    6 am    
   13    5   41 1     
   14    6    7 2     
   15    6    8 1     
   16    8    9 1     
   17    9   10 1     
   18    9   11 1     
   19    9   12 1     
   20   10   27 1     
   21   10   28 1     
   22   10   29 1     
   23   11   30 1     
   24   11   31 1     
   25   11   32 1     
   26   12   33 1     
   27   12   34 1     
   28   12   35 1     
   29   13   14 ar    
   30   13   15 ar    
   31   16   17 ar    
   32   16   21 ar    
   33   17   18 ar    
   34   17   36 1     
   35   18   19 ar    
   36   18   37 1     
   37   19   20 ar    
   38   19   38 1     
   39   20   21 ar    
   40   20   39 1     
   41   21   40 1     
@<TRIPOS>SUBSTRUCTURE
      1 ****           1
@<TRIPOS>SET
DONOR_HYDROGENS      STATIC     ATOMS    <user>   **** ""
1 41
ATOM$RED        STATIC     ATOMS    COLORGROUP SYSTEM
1 41
