#       Name:                EN300-68237_i001
#       Creating user name   aseyller
#       Creation time:       Fri Apr 21 18:36:54 2023


#       File generated by GOLD software.
#

@<TRIPOS>MOLECULE
EN300-68237_i001|benzaldehydes|mol2|585|dock20
    32    33     1
SMALL
USER_CHARGES


@<TRIPOS>ATOM
      1 Cl1         32.7005  40.6107  33.5878 Cl             1 <1>                0.0000
      2 C2          32.3973  39.2012  34.5548 C.ar           1 <1>                0.0000
      3 C3          32.5719  39.2541  35.9265 C.ar           1 <1>                0.0000
      4 C4          32.3308  38.1344  36.6981 C.ar           1 <1>                0.0000
      5 C5          31.9129  36.9547  36.0964 C.ar           1 <1>                0.0000
      6 N6          31.6675  35.8185  36.8762 N.am           1 <1>                0.0000
      7 C7          31.0543  35.9402  38.0702 C.2            1 <1>                0.0000
      8 O8          30.6296  37.0190  38.4266 O.2            1 <1>                0.0000
      9 C9          30.8964  34.7360  38.9624 C.3            1 <1>                0.0000
     10 O10         29.5271  34.3272  38.9729 O.3            1 <1>                0.0000
     11 C11         28.6567  35.1073  39.6614 C.ar           1 <1>                0.0000
     12 C12         27.3280  35.1859  39.2581 C.ar           1 <1>                0.0000
     13 C13         26.4442  35.9733  39.9504 C.ar           1 <1>                0.0000
     14 C14         26.8816  36.6988  41.0655 C.ar           1 <1>                0.0000
     15 C15         25.9393  37.5433  41.8109 C.2            1 <1>                0.0000
     16 O16         24.7557  37.2781  41.8099 O.2            1 <1>                0.0000
     17 C17         28.2204  36.6157  41.4677 C.ar           1 <1>                0.0000
     18 C18         29.0948  35.8214  40.7716 C.ar           1 <1>                0.0000
     19 C19         31.7384  36.9043  34.7197 C.ar           1 <1>                0.0000
     20 C20         31.9757  38.0284  33.9531 C.ar           1 <1>                0.0000
     21 H21         32.8972  40.1717  36.3940 H              1 <1>                0.0000
     22 H22         32.4675  38.1760  37.7686 H              1 <1>                0.0000
     23 H23         31.5158  33.9216  38.5866 H              1 <1>                0.0000
     24 H24         31.2071  34.9912  39.9755 H              1 <1>                0.0000
     25 H25         26.9917  34.6261  38.3980 H              1 <1>                0.0000
     26 H26         25.4129  36.0342  39.6359 H              1 <1>                0.0000
     27 H27         26.3003  38.4002  42.3601 H              1 <1>                0.0000
     28 H28         28.5627  37.1732  42.3270 H              1 <1>                0.0000
     29 H29         30.1276  35.7567  41.0809 H              1 <1>                0.0000
     30 H30         31.4136  35.9881  34.2492 H              1 <1>                0.0000
     31 H31         31.8403  37.9897  32.8824 H              1 <1>                0.0000
     32 H32         31.9388  34.9435  36.5572 H              1 <1>                0.0000
@<TRIPOS>BOND
    1    1    2 1     
    2    2    3 ar    
    3    2   20 ar    
    4    3    4 ar    
    5    3   21 1     
    6    4    5 ar    
    7    4   22 1     
    8    5    6 1     
    9    5   19 ar    
   10    6    7 am    
   11    6   32 1     
   12    7    8 2     
   13    7    9 1     
   14    9   10 1     
   15    9   23 1     
   16    9   24 1     
   17   10   11 1     
   18   11   12 ar    
   19   11   18 ar    
   20   12   13 ar    
   21   12   25 1     
   22   13   14 ar    
   23   13   26 1     
   24   14   15 1     
   25   14   17 ar    
   26   15   16 2     
   27   15   27 1     
   28   17   18 ar    
   29   17   28 1     
   30   18   29 1     
   31   19   20 ar    
   32   19   30 1     
   33   20   31 1     
@<TRIPOS>SUBSTRUCTURE
      1 ****           1
@<TRIPOS>SET
DONOR_HYDROGENS      STATIC     ATOMS    <user>   **** ""
1 32
ATOM$RED        STATIC     ATOMS    COLORGROUP SYSTEM
1 32
@<TRIPOS>COMMENT
> <Gold.Version>
2022.2.0

> <Gold.Id.Protein>
1qkm|1qkm_protein|mol2

> <Gold.Protein.RotatedTorsions>
[  496  491  490  487 ] final   26.54 input  -89.99 | X-H torsion

> <Gold.Protein.ActiveResidues>
 MET295  LEU298  THR299  LEU301  ALA302  GLU305  TRP335  MET336  LEU339  MET340 
 GLY342  LEU343  ARG346  PHE356  ILE373  ILE376  PHE377  LEU380  LYS471  GLY472 
 MET473  HIS475  LEU476  LEU477  ASN478  MET479  VAL484  VAL487 

> <Gold.Protein.RotatedAtoms>
   36.3295   33.8095   42.3751 H   0  0  0  0  0  0  0  0  0  0  0  0  # atno 496  bound_to 491 

> <Gold.Score>
     Score     S(PLP)   S(hbond)     S(cho)   S(metal)  DE(clash)   DE(tors)     intcor
     37.63     -37.43       0.29       0.00       0.00       2.89       1.01       4.25

> <Gold.PLP.Fitness>
37.6296

> <Gold.PLP.PLP>
-37.4282

> <Gold.PLP.part.hbond>
-0.2368

> <Gold.PLP.part.metal>
0.0000

> <Gold.PLP.part.buried>
-2.0181

> <Gold.PLP.part.nonpolar>
-35.2376

> <Gold.PLP.part.repulsive>
0.3540

> <Gold.PLP.ligand.clash>
2.8890

> <Gold.PLP.ligand.torsion>
1.0129

> <Gold.PLP.Chemscore.Hbond>
0.2880

> <Gold.PLP.Chemscore.CHOScore>
0.0000

> <Gold.PLP.Chemscore.Metal>
0.0000

> <Gold.Chemscore.Hbonds>
donor molecule, donor type, donor heavy atom, donor atom, acceptor molecule, acceptor atom, score
      P1  H  1258  1270       L1    16  0.29

> <Gold.PLP.Chemscore.Internal.Correction>
4.2522

