#       Name:                EN300-68237_i001
#       Creating user name   aseyller
#       Creation time:       Fri Apr 21 18:36:30 2023


#       File generated by GOLD software.
#

@<TRIPOS>MOLECULE
EN300-68237_i001|benzaldehydes|mol2|585|dock3
    32    33     1
SMALL
USER_CHARGES


@<TRIPOS>ATOM
      1 Cl1         24.9656  37.6702  40.9781 Cl             1 <1>                0.0000
      2 C2          26.5351  36.9908  40.6802 C.ar           1 <1>                0.0000
      3 C3          27.3544  36.6526  41.7429 C.ar           1 <1>                0.0000
      4 C4          28.6033  36.1115  41.5085 C.ar           1 <1>                0.0000
      5 C5          29.0366  35.9069  40.2051 C.ar           1 <1>                0.0000
      6 N6          30.3017  35.3583  39.9649 N.am           1 <1>                0.0000
      7 C7          30.4686  34.4559  38.9778 C.2            1 <1>                0.0000
      8 O8          29.5459  34.1904  38.2366 O.2            1 <1>                0.0000
      9 C9          31.8014  33.7768  38.7950 C.3            1 <1>                0.0000
     10 O10         32.8204  34.7646  38.6280 O.3            1 <1>                0.0000
     11 C11         32.7121  35.5857  37.5536 C.ar           1 <1>                0.0000
     12 C12         33.2183  36.8795  37.6162 C.ar           1 <1>                0.0000
     13 C13         33.1110  37.7135  36.5331 C.ar           1 <1>                0.0000
     14 C14         32.4907  37.2603  35.3623 C.ar           1 <1>                0.0000
     15 C15         32.3735  38.1491  34.1990 C.2            1 <1>                0.0000
     16 O16         31.4699  38.9561  34.1412 O.2            1 <1>                0.0000
     17 C17         31.9832  35.9563  35.3042 C.ar           1 <1>                0.0000
     18 C18         32.1003  35.1287  36.3911 C.ar           1 <1>                0.0000
     19 C19         28.2125  36.2471  39.1406 C.ar           1 <1>                0.0000
     20 C20         26.9623  36.7830  39.3804 C.ar           1 <1>                0.0000
     21 H21         27.0171  36.8122  42.7563 H              1 <1>                0.0000
     22 H22         29.2425  35.8480  42.3381 H              1 <1>                0.0000
     23 H23         32.0237  33.1704  39.6731 H              1 <1>                0.0000
     24 H24         31.7659  33.1385  37.9122 H              1 <1>                0.0000
     25 H25         33.6964  37.2281  38.5196 H              1 <1>                0.0000
     26 H26         33.5037  38.7183  36.5831 H              1 <1>                0.0000
     27 H27         33.0918  38.0840  33.3953 H              1 <1>                0.0000
     28 H28         31.5040  35.6020  34.4036 H              1 <1>                0.0000
     29 H29         31.7091  34.1229  36.3474 H              1 <1>                0.0000
     30 H30         28.5471  36.0891  38.1259 H              1 <1>                0.0000
     31 H31         26.3211  37.0479  38.5528 H              1 <1>                0.0000
     32 H32         31.0583  35.6275  40.5088 H              1 <1>                0.0000
@<TRIPOS>BOND
    1    1    2 1     
    2    2    3 ar    
    3    2   20 ar    
    4    3    4 ar    
    5    3   21 1     
    6    4    5 ar    
    7    4   22 1     
    8    5    6 1     
    9    5   19 ar    
   10    6    7 am    
   11    6   32 1     
   12    7    8 2     
   13    7    9 1     
   14    9   10 1     
   15    9   23 1     
   16    9   24 1     
   17   10   11 1     
   18   11   12 ar    
   19   11   18 ar    
   20   12   13 ar    
   21   12   25 1     
   22   13   14 ar    
   23   13   26 1     
   24   14   15 1     
   25   14   17 ar    
   26   15   16 2     
   27   15   27 1     
   28   17   18 ar    
   29   17   28 1     
   30   18   29 1     
   31   19   20 ar    
   32   19   30 1     
   33   20   31 1     
@<TRIPOS>SUBSTRUCTURE
      1 ****           1
@<TRIPOS>SET
DONOR_HYDROGENS      STATIC     ATOMS    <user>   **** ""
1 32
ATOM$RED        STATIC     ATOMS    COLORGROUP SYSTEM
1 32
@<TRIPOS>COMMENT
> <Gold.Version>
2022.2.0

> <Gold.Id.Protein>
1qkm|1qkm_protein|mol2

> <Gold.Protein.RotatedTorsions>
[  496  491  490  487 ] final  -48.40 input  -89.99 | X-H torsion

> <Gold.Protein.ActiveResidues>
 MET295  LEU298  THR299  LEU301  ALA302  GLU305  TRP335  MET336  LEU339  MET340 
 GLY342  LEU343  ARG346  PHE356  ILE373  ILE376  PHE377  LEU380  LYS471  GLY472 
 MET473  HIS475  LEU476  LEU477  ASN478  MET479  VAL484  VAL487 

> <Gold.Protein.RotatedAtoms>
   36.4140   34.6972   41.6527 H   0  0  0  0  0  0  0  0  0  0  0  0  # atno 496  bound_to 491 

> <Gold.Score>
     Score     S(PLP)   S(hbond)     S(cho)   S(metal)  DE(clash)   DE(tors)     intcor
     47.18     -48.56       0.69       0.00       0.00       4.87       1.44       4.29

> <Gold.PLP.Fitness>
47.1756

> <Gold.PLP.PLP>
-48.5633

> <Gold.PLP.part.hbond>
-1.0279

> <Gold.PLP.part.metal>
0.0000

> <Gold.PLP.part.buried>
5.9671

> <Gold.PLP.part.nonpolar>
-55.3885

> <Gold.PLP.part.repulsive>
0.2612

> <Gold.PLP.ligand.clash>
4.8725

> <Gold.PLP.ligand.torsion>
1.4384

> <Gold.PLP.Chemscore.Hbond>
0.6912

> <Gold.PLP.Chemscore.CHOScore>
0.0000

> <Gold.PLP.Chemscore.Metal>
0.0000

> <Gold.Chemscore.Hbonds>
donor molecule, donor type, donor heavy atom, donor atom, acceptor molecule, acceptor atom, score
      L1  H     6    32       P1   470  0.69

> <Gold.PLP.Chemscore.Internal.Correction>
4.2881

