#       Name:                EN300-68237_i001
#       Creating user name   aseyller
#       Creation time:       Fri Apr 21 18:36:41 2023


#       File generated by GOLD software.
#

@<TRIPOS>MOLECULE
EN300-68237_i001|benzaldehydes|mol2|585|dock11
    32    33     1
SMALL
USER_CHARGES


@<TRIPOS>ATOM
      1 Cl1         32.6959  40.2369  33.1233 Cl             1 <1>                0.0000
      2 C2          32.3413  38.8852  34.1534 C.ar           1 <1>                0.0000
      3 C3          33.2965  37.9057  34.3608 C.ar           1 <1>                0.0000
      4 C4          33.0171  36.8296  35.1802 C.ar           1 <1>                0.0000
      5 C5          31.7763  36.7311  35.7961 C.ar           1 <1>                0.0000
      6 N6          31.4907  35.6417  36.6273 N.am           1 <1>                0.0000
      7 C7          30.7961  35.8277  37.7671 C.2            1 <1>                0.0000
      8 O8          30.3360  36.9198  38.0257 O.2            1 <1>                0.0000
      9 C9          30.5908  34.6787  38.7205 C.3            1 <1>                0.0000
     10 O10         30.3320  35.1872  40.0306 O.3            1 <1>                0.0000
     11 C11         29.0864  35.6684  40.2696 C.ar           1 <1>                0.0000
     12 C12         28.7804  36.2130  41.5122 C.ar           1 <1>                0.0000
     13 C13         27.5227  36.7005  41.7590 C.ar           1 <1>                0.0000
     14 C14         26.5457  36.6495  40.7570 C.ar           1 <1>                0.0000
     15 C15         25.1972  37.1706  41.0156 C.2            1 <1>                0.0000
     16 O16         24.6716  36.9846  42.0928 O.2            1 <1>                0.0000
     17 C17         26.8592  36.1007  39.5073 C.ar           1 <1>                0.0000
     18 C18         28.1213  35.6207  39.2692 C.ar           1 <1>                0.0000
     19 C19         30.8196  37.7154  35.5862 C.ar           1 <1>                0.0000
     20 C20         31.1060  38.7922  34.7701 C.ar           1 <1>                0.0000
     21 H21         34.2612  37.9826  33.8814 H              1 <1>                0.0000
     22 H22         33.7627  36.0652  35.3416 H              1 <1>                0.0000
     23 H23         29.7429  34.0790  38.3895 H              1 <1>                0.0000
     24 H24         31.4876  34.0596  38.7417 H              1 <1>                0.0000
     25 H25         29.5345  36.2518  42.2842 H              1 <1>                0.0000
     26 H26         27.2860  37.1224  42.7245 H              1 <1>                0.0000
     27 H27         24.6738  37.7193  40.2468 H              1 <1>                0.0000
     28 H28         26.1093  36.0591  38.7313 H              1 <1>                0.0000
     29 H29         28.3641  35.1971  38.3058 H              1 <1>                0.0000
     30 H30         29.8539  37.6411  36.0639 H              1 <1>                0.0000
     31 H31         30.3622  39.5579  34.6065 H              1 <1>                0.0000
     32 H32         31.7929  34.7529  36.3830 H              1 <1>                0.0000
@<TRIPOS>BOND
    1    1    2 1     
    2    2    3 ar    
    3    2   20 ar    
    4    3    4 ar    
    5    3   21 1     
    6    4    5 ar    
    7    4   22 1     
    8    5    6 1     
    9    5   19 ar    
   10    6    7 am    
   11    6   32 1     
   12    7    8 2     
   13    7    9 1     
   14    9   10 1     
   15    9   23 1     
   16    9   24 1     
   17   10   11 1     
   18   11   12 ar    
   19   11   18 ar    
   20   12   13 ar    
   21   12   25 1     
   22   13   14 ar    
   23   13   26 1     
   24   14   15 1     
   25   14   17 ar    
   26   15   16 2     
   27   15   27 1     
   28   17   18 ar    
   29   17   28 1     
   30   18   29 1     
   31   19   20 ar    
   32   19   30 1     
   33   20   31 1     
@<TRIPOS>SUBSTRUCTURE
      1 ****           1
@<TRIPOS>SET
DONOR_HYDROGENS      STATIC     ATOMS    <user>   **** ""
1 32
ATOM$RED        STATIC     ATOMS    COLORGROUP SYSTEM
1 32
@<TRIPOS>COMMENT
> <Gold.Version>
2022.2.0

> <Gold.Id.Protein>
1qkm|1qkm_protein|mol2

> <Gold.Protein.RotatedTorsions>
[  496  491  490  487 ] final   39.10 input  -89.99 | X-H torsion

> <Gold.Protein.ActiveResidues>
 MET295  LEU298  THR299  LEU301  ALA302  GLU305  TRP335  MET336  LEU339  MET340 
 GLY342  LEU343  ARG346  PHE356  ILE373  ILE376  PHE377  LEU380  LYS471  GLY472 
 MET473  HIS475  LEU476  LEU477  ASN478  MET479  VAL484  VAL487 

> <Gold.Protein.RotatedAtoms>
   36.3980   33.6150   42.3808 H   0  0  0  0  0  0  0  0  0  0  0  0  # atno 496  bound_to 491 

> <Gold.Score>
     Score     S(PLP)   S(hbond)     S(cho)   S(metal)  DE(clash)   DE(tors)     intcor
     38.82     -42.28       0.35       0.00       0.00       6.75       1.01       4.26

> <Gold.PLP.Fitness>
38.8221

> <Gold.PLP.PLP>
-42.2794

> <Gold.PLP.part.hbond>
0.7269

> <Gold.PLP.part.metal>
0.0000

> <Gold.PLP.part.buried>
0.6412

> <Gold.PLP.part.nonpolar>
-48.4492

> <Gold.PLP.part.repulsive>
4.1528

> <Gold.PLP.ligand.clash>
6.7468

> <Gold.PLP.ligand.torsion>
1.0114

> <Gold.PLP.Chemscore.Hbond>
0.3510

> <Gold.PLP.Chemscore.CHOScore>
0.0000

> <Gold.PLP.Chemscore.Metal>
0.0000

> <Gold.Chemscore.Hbonds>
donor molecule, donor type, donor heavy atom, donor atom, acceptor molecule, acceptor atom, score
      P1  H  1258  1270       L1    16  0.35

> <Gold.PLP.Chemscore.Internal.Correction>
4.2593

