#       Name:                EN300-68237_i001
#       Creating user name   aseyller
#       Creation time:       Fri Apr 21 18:36:48 2023


#       File generated by GOLD software.
#

@<TRIPOS>MOLECULE
EN300-68237_i001|benzaldehydes|mol2|585|dock16
    32    33     1
SMALL
USER_CHARGES


@<TRIPOS>ATOM
      1 Cl1         25.0320  37.7883  41.2393 Cl             1 <1>                0.0000
      2 C2          26.3380  36.9789  40.4312 C.ar           1 <1>                0.0000
      3 C3          26.5284  37.1611  39.0727 C.ar           1 <1>                0.0000
      4 C4          27.5670  36.5188  38.4276 C.ar           1 <1>                0.0000
      5 C5          28.4204  35.6895  39.1433 C.ar           1 <1>                0.0000
      6 N6          29.4740  35.0376  38.4919 N.am           1 <1>                0.0000
      7 C7          29.7796  33.7646  38.8120 C.2            1 <1>                0.0000
      8 O8          29.0836  33.1521  39.5940 O.2            1 <1>                0.0000
      9 C9          30.9862  33.1022  38.1982 C.3            1 <1>                0.0000
     10 O10         32.1413  33.9122  38.4250 O.3            1 <1>                0.0000
     11 C11         32.3363  34.9569  37.5819 C.ar           1 <1>                0.0000
     12 C12         31.8667  34.8893  36.2746 C.ar           1 <1>                0.0000
     13 C13         32.0615  35.9424  35.4182 C.ar           1 <1>                0.0000
     14 C14         32.7343  37.0874  35.8622 C.ar           1 <1>                0.0000
     15 C15         32.9453  38.2185  34.9495 C.2            1 <1>                0.0000
     16 O16         32.3876  38.2409  33.8727 O.2            1 <1>                0.0000
     17 C17         33.2047  37.1507  37.1798 C.ar           1 <1>                0.0000
     18 C18         33.0001  36.0941  38.0295 C.ar           1 <1>                0.0000
     19 C19         28.2272  35.5084  40.5064 C.ar           1 <1>                0.0000
     20 C20         27.1903  36.1573  41.1479 C.ar           1 <1>                0.0000
     21 H21         25.8642  37.8059  38.5165 H              1 <1>                0.0000
     22 H22         27.7150  36.6610  37.3673 H              1 <1>                0.0000
     23 H23         31.1339  32.1229  38.6536 H              1 <1>                0.0000
     24 H24         30.8298  32.9844  37.1259 H              1 <1>                0.0000
     25 H25         31.3480  34.0058  35.9331 H              1 <1>                0.0000
     26 H26         31.6972  35.8885  34.4030 H              1 <1>                0.0000
     27 H27         33.5970  39.0301  35.2372 H              1 <1>                0.0000
     28 H28         33.7241  38.0315  37.5271 H              1 <1>                0.0000
     29 H29         33.3624  36.1418  39.0459 H              1 <1>                0.0000
     30 H30         28.8895  34.8639  41.0653 H              1 <1>                0.0000
     31 H31         27.0395  36.0167  42.2079 H              1 <1>                0.0000
     32 H32         29.9842  35.5022  37.8102 H              1 <1>                0.0000
@<TRIPOS>BOND
    1    1    2 1     
    2    2    3 ar    
    3    2   20 ar    
    4    3    4 ar    
    5    3   21 1     
    6    4    5 ar    
    7    4   22 1     
    8    5    6 1     
    9    5   19 ar    
   10    6    7 am    
   11    6   32 1     
   12    7    8 2     
   13    7    9 1     
   14    9   10 1     
   15    9   23 1     
   16    9   24 1     
   17   10   11 1     
   18   11   12 ar    
   19   11   18 ar    
   20   12   13 ar    
   21   12   25 1     
   22   13   14 ar    
   23   13   26 1     
   24   14   15 1     
   25   14   17 ar    
   26   15   16 2     
   27   15   27 1     
   28   17   18 ar    
   29   17   28 1     
   30   18   29 1     
   31   19   20 ar    
   32   19   30 1     
   33   20   31 1     
@<TRIPOS>SUBSTRUCTURE
      1 ****           1
@<TRIPOS>SET
DONOR_HYDROGENS      STATIC     ATOMS    <user>   **** ""
1 32
ATOM$RED        STATIC     ATOMS    COLORGROUP SYSTEM
1 32
@<TRIPOS>COMMENT
> <Gold.Version>
2022.2.0

> <Gold.Id.Protein>
1qkm|1qkm_protein|mol2

> <Gold.Protein.RotatedTorsions>
[  496  491  490  487 ] final  -44.52 input  -89.99 | X-H torsion

> <Gold.Protein.ActiveResidues>
 MET295  LEU298  THR299  LEU301  ALA302  GLU305  TRP335  MET336  LEU339  MET340 
 GLY342  LEU343  ARG346  PHE356  ILE373  ILE376  PHE377  LEU380  LYS471  GLY472 
 MET473  HIS475  LEU476  LEU477  ASN478  MET479  VAL484  VAL487 

> <Gold.Protein.RotatedAtoms>
   36.3895   34.6776   41.7084 H   0  0  0  0  0  0  0  0  0  0  0  0  # atno 496  bound_to 491 

> <Gold.Score>
     Score     S(PLP)   S(hbond)     S(cho)   S(metal)  DE(clash)   DE(tors)     intcor
     39.59     -39.97       0.00       0.00       0.00       2.94       0.85       4.26

> <Gold.PLP.Fitness>
39.5923

> <Gold.PLP.PLP>
-39.9697

> <Gold.PLP.part.hbond>
0.0000

> <Gold.PLP.part.metal>
0.0000

> <Gold.PLP.part.buried>
8.9825

> <Gold.PLP.part.nonpolar>
-50.5077

> <Gold.PLP.part.repulsive>
0.2776

> <Gold.PLP.ligand.clash>
2.9367

> <Gold.PLP.ligand.torsion>
0.8500

> <Gold.PLP.Chemscore.Hbond>
0.0000

> <Gold.PLP.Chemscore.CHOScore>
0.0000

> <Gold.PLP.Chemscore.Metal>
0.0000

> <Gold.PLP.Chemscore.Internal.Correction>
4.2593

