#       Name:                EN300-68237_i001
#       Creating user name   aseyller
#       Creation time:       Fri Apr 21 18:36:46 2023


#       File generated by GOLD software.
#

@<TRIPOS>MOLECULE
EN300-68237_i001|benzaldehydes|mol2|585|dock15
    32    33     1
SMALL
USER_CHARGES


@<TRIPOS>ATOM
      1 Cl1         24.4490  37.5860  40.4242 Cl             1 <1>                0.0000
      2 C2          26.0334  37.1095  39.8984 C.ar           1 <1>                0.0000
      3 C3          26.5825  37.6744  38.7607 C.ar           1 <1>                0.0000
      4 C4          27.8429  37.2974  38.3406 C.ar           1 <1>                0.0000
      5 C5          28.5593  36.3505  39.0608 C.ar           1 <1>                0.0000
      6 N6          29.8371  35.9670  38.6373 N.am           1 <1>                0.0000
      7 C7          30.2120  34.6746  38.7113 C.2            1 <1>                0.0000
      8 O8          29.4119  33.8298  39.0540 O.2            1 <1>                0.0000
      9 C9          31.6251  34.2790  38.3682 C.3            1 <1>                0.0000
     10 O10         32.4479  35.4463  38.3185 O.3            1 <1>                0.0000
     11 C11         32.3708  36.2069  37.1979 C.ar           1 <1>                0.0000
     12 C12         32.6766  37.5623  37.2579 C.ar           1 <1>                0.0000
     13 C13         32.5999  38.3357  36.1282 C.ar           1 <1>                0.0000
     14 C14         32.2133  37.7582  34.9124 C.ar           1 <1>                0.0000
     15 C15         32.1299  38.5816  33.6992 C.2            1 <1>                0.0000
     16 O16         31.8278  39.7534  33.7811 O.2            1 <1>                0.0000
     17 C17         31.9070  36.3928  34.8572 C.ar           1 <1>                0.0000
     18 C18         31.9918  35.6274  35.9917 C.ar           1 <1>                0.0000
     19 C19         28.0060  35.7853  40.2020 C.ar           1 <1>                0.0000
     20 C20         26.7473  36.1696  40.6210 C.ar           1 <1>                0.0000
     21 H21         26.0248  38.4105  38.2008 H              1 <1>                0.0000
     22 H22         28.2709  37.7382  37.4524 H              1 <1>                0.0000
     23 H23         32.0065  33.5977  39.1288 H              1 <1>                0.0000
     24 H24         31.6382  33.7837  37.3973 H              1 <1>                0.0000
     25 H25         32.9746  38.0067  38.1960 H              1 <1>                0.0000
     26 H26         32.8368  39.3882  36.1760 H              1 <1>                0.0000
     27 H27         32.3377  38.1437  32.7341 H              1 <1>                0.0000
     28 H28         31.6084  35.9427  33.9221 H              1 <1>                0.0000
     29 H29         31.7558  34.5743  35.9504 H              1 <1>                0.0000
     30 H30         28.5611  35.0486  40.7639 H              1 <1>                0.0000
     31 H31         26.3165  35.7302  41.5084 H              1 <1>                0.0000
     32 H32         30.4529  36.6315  38.2906 H              1 <1>                0.0000
@<TRIPOS>BOND
    1    1    2 1     
    2    2    3 ar    
    3    2   20 ar    
    4    3    4 ar    
    5    3   21 1     
    6    4    5 ar    
    7    4   22 1     
    8    5    6 1     
    9    5   19 ar    
   10    6    7 am    
   11    6   32 1     
   12    7    8 2     
   13    7    9 1     
   14    9   10 1     
   15    9   23 1     
   16    9   24 1     
   17   10   11 1     
   18   11   12 ar    
   19   11   18 ar    
   20   12   13 ar    
   21   12   25 1     
   22   13   14 ar    
   23   13   26 1     
   24   14   15 1     
   25   14   17 ar    
   26   15   16 2     
   27   15   27 1     
   28   17   18 ar    
   29   17   28 1     
   30   18   29 1     
   31   19   20 ar    
   32   19   30 1     
   33   20   31 1     
@<TRIPOS>SUBSTRUCTURE
      1 ****           1
@<TRIPOS>SET
DONOR_HYDROGENS      STATIC     ATOMS    <user>   **** ""
1 32
ATOM$RED        STATIC     ATOMS    COLORGROUP SYSTEM
1 32
@<TRIPOS>COMMENT
> <Gold.Version>
2022.2.0

> <Gold.Id.Protein>
1qkm|1qkm_protein|mol2

> <Gold.Protein.RotatedTorsions>
[  496  491  490  487 ] final  169.94 input  -89.99 | X-H torsion

> <Gold.Protein.ActiveResidues>
 MET295  LEU298  THR299  LEU301  ALA302  GLU305  TRP335  MET336  LEU339  MET340 
 GLY342  LEU343  ARG346  PHE356  ILE373  ILE376  PHE377  LEU380  LYS471  GLY472 
 MET473  HIS475  LEU476  LEU477  ASN478  MET479  VAL484  VAL487 

> <Gold.Protein.RotatedAtoms>
   37.3152   33.3250   40.9604 H   0  0  0  0  0  0  0  0  0  0  0  0  # atno 496  bound_to 491 

> <Gold.Score>
     Score     S(PLP)   S(hbond)     S(cho)   S(metal)  DE(clash)   DE(tors)     intcor
     35.29     -38.73       0.00       0.00       0.00       5.44       1.13       4.26

> <Gold.PLP.Fitness>
35.2929

> <Gold.PLP.PLP>
-38.7298

> <Gold.PLP.part.hbond>
0.0000

> <Gold.PLP.part.metal>
0.0000

> <Gold.PLP.part.buried>
10.9740

> <Gold.PLP.part.nonpolar>
-50.1869

> <Gold.PLP.part.repulsive>
0.1703

> <Gold.PLP.ligand.clash>
5.4408

> <Gold.PLP.ligand.torsion>
1.1277

> <Gold.PLP.Chemscore.Hbond>
0.0000

> <Gold.PLP.Chemscore.CHOScore>
0.0000

> <Gold.PLP.Chemscore.Metal>
0.0000

> <Gold.PLP.Chemscore.Internal.Correction>
4.2593

