#       Name:                EN300-68237_i001
#       Creating user name   aseyller
#       Creation time:       Fri Apr 21 18:36:31 2023


#       File generated by GOLD software.
#

@<TRIPOS>MOLECULE
EN300-68237_i001|benzaldehydes|mol2|585|dock4
    32    33     1
SMALL
USER_CHARGES


@<TRIPOS>ATOM
      1 Cl1         31.2622  41.7877  34.7698 Cl             1 <1>                0.0000
      2 C2          30.8094  40.3053  35.5515 C.ar           1 <1>                0.0000
      3 C3          31.5206  39.1456  35.2982 C.ar           1 <1>                0.0000
      4 C4          31.1626  37.9651  35.9192 C.ar           1 <1>                0.0000
      5 C5          30.0880  37.9425  36.7985 C.ar           1 <1>                0.0000
      6 N6          29.7234  36.7475  37.4295 N.am           1 <1>                0.0000
      7 C7          30.6747  35.9066  37.8815 C.2            1 <1>                0.0000
      8 O8          31.8432  36.2279  37.8283 O.2            1 <1>                0.0000
      9 C9          30.2869  34.5672  38.4532 C.3            1 <1>                0.0000
     10 O10         30.0088  34.7070  39.8479 O.3            1 <1>                0.0000
     11 C11         28.8766  35.3730  40.1865 C.ar           1 <1>                0.0000
     12 C12         28.7961  36.0246  41.4125 C.ar           1 <1>                0.0000
     13 C13         27.6538  36.6988  41.7597 C.ar           1 <1>                0.0000
     14 C14         26.5670  36.7309  40.8771 C.ar           1 <1>                0.0000
     15 C15         25.3412  37.4519  41.2436 C.2            1 <1>                0.0000
     16 O16         25.2020  37.8775  42.3709 O.2            1 <1>                0.0000
     17 C17         26.6533  36.0736  39.6436 C.ar           1 <1>                0.0000
     18 C18         27.8021  35.4065  39.3039 C.ar           1 <1>                0.0000
     19 C19         29.3761  39.1076  37.0510 C.ar           1 <1>                0.0000
     20 C20         29.7414  40.2867  36.4314 C.ar           1 <1>                0.0000
     21 H21         32.3560  39.1636  34.6141 H              1 <1>                0.0000
     22 H22         31.7177  37.0602  35.7209 H              1 <1>                0.0000
     23 H23         29.3987  34.1970  37.9410 H              1 <1>                0.0000
     24 H24         31.1065  33.8621  38.3150 H              1 <1>                0.0000
     25 H25         29.6348  35.9992  42.0924 H              1 <1>                0.0000
     26 H26         27.5921  37.2039  42.7123 H              1 <1>                0.0000
     27 H27         24.5638  37.6032  40.5095 H              1 <1>                0.0000
     28 H28         25.8180  36.0953  38.9594 H              1 <1>                0.0000
     29 H29         27.8698  34.8992  38.3529 H              1 <1>                0.0000
     30 H30         28.5398  39.0928  37.7343 H              1 <1>                0.0000
     31 H31         29.1879  41.1931  36.6274 H              1 <1>                0.0000
     32 H32         28.7861  36.5245  37.5414 H              1 <1>                0.0000
@<TRIPOS>BOND
    1    1    2 1     
    2    2    3 ar    
    3    2   20 ar    
    4    3    4 ar    
    5    3   21 1     
    6    4    5 ar    
    7    4   22 1     
    8    5    6 1     
    9    5   19 ar    
   10    6    7 am    
   11    6   32 1     
   12    7    8 2     
   13    7    9 1     
   14    9   10 1     
   15    9   23 1     
   16    9   24 1     
   17   10   11 1     
   18   11   12 ar    
   19   11   18 ar    
   20   12   13 ar    
   21   12   25 1     
   22   13   14 ar    
   23   13   26 1     
   24   14   15 1     
   25   14   17 ar    
   26   15   16 2     
   27   15   27 1     
   28   17   18 ar    
   29   17   28 1     
   30   18   29 1     
   31   19   20 ar    
   32   19   30 1     
   33   20   31 1     
@<TRIPOS>SUBSTRUCTURE
      1 ****           1
@<TRIPOS>SET
DONOR_HYDROGENS      STATIC     ATOMS    <user>   **** ""
1 32
ATOM$RED        STATIC     ATOMS    COLORGROUP SYSTEM
1 32
@<TRIPOS>COMMENT
> <Gold.Version>
2022.2.0

> <Gold.Id.Protein>
1qkm|1qkm_protein|mol2

> <Gold.Protein.RotatedTorsions>
[  496  491  490  487 ] final  117.16 input  -89.99 | X-H torsion

> <Gold.Protein.ActiveResidues>
 MET295  LEU298  THR299  LEU301  ALA302  GLU305  TRP335  MET336  LEU339  MET340 
 GLY342  LEU343  ARG346  PHE356  ILE373  ILE376  PHE377  LEU380  LYS471  GLY472 
 MET473  HIS475  LEU476  LEU477  ASN478  MET479  VAL484  VAL487 

> <Gold.Protein.RotatedAtoms>
   37.0583   32.9403   41.6597 H   0  0  0  0  0  0  0  0  0  0  0  0  # atno 496  bound_to 491 

> <Gold.Score>
     Score     S(PLP)   S(hbond)     S(cho)   S(metal)  DE(clash)   DE(tors)     intcor
     47.14     -47.91       0.00       0.00       0.00       2.89       1.09       4.29

> <Gold.PLP.Fitness>
47.1374

> <Gold.PLP.PLP>
-47.9137

> <Gold.PLP.part.hbond>
0.6193

> <Gold.PLP.part.metal>
0.0000

> <Gold.PLP.part.buried>
-1.0510

> <Gold.PLP.part.nonpolar>
-49.1094

> <Gold.PLP.part.repulsive>
1.8104

> <Gold.PLP.ligand.clash>
2.8885

> <Gold.PLP.ligand.torsion>
1.0879

> <Gold.PLP.Chemscore.Hbond>
0.0000

> <Gold.PLP.Chemscore.CHOScore>
0.0000

> <Gold.PLP.Chemscore.Metal>
0.0000

> <Gold.PLP.Chemscore.Internal.Correction>
4.2881

