#       Name:                EN300-68237_i001
#       Creating user name   aseyller
#       Creation time:       Fri Apr 21 18:36:37 2023


#       File generated by GOLD software.
#

@<TRIPOS>MOLECULE
EN300-68237_i001|benzaldehydes|mol2|585|dock8
    32    33     1
SMALL
USER_CHARGES


@<TRIPOS>ATOM
      1 Cl1         25.4909  37.0077  41.5052 Cl             1 <1>                0.0000
      2 C2          26.8172  36.4381  40.5408 C.ar           1 <1>                0.0000
      3 C3          28.0241  36.1262  41.1416 C.ar           1 <1>                0.0000
      4 C4          29.0807  35.6724  40.3766 C.ar           1 <1>                0.0000
      5 C5          28.9311  35.5292  39.0034 C.ar           1 <1>                0.0000
      6 N6          30.0002  35.0691  38.2260 N.am           1 <1>                0.0000
      7 C7          30.7892  34.0774  38.6846 C.2            1 <1>                0.0000
      8 O8          30.5172  33.5186  39.7262 O.2            1 <1>                0.0000
      9 C9          32.0094  33.6628  37.9033 C.3            1 <1>                0.0000
     10 O10         32.9309  34.7534  37.8449 O.3            1 <1>                0.0000
     11 C11         32.6391  35.7609  36.9847 C.ar           1 <1>                0.0000
     12 C12         33.0590  37.0564  37.2667 C.ar           1 <1>                0.0000
     13 C13         32.7663  38.0785  36.4008 C.ar           1 <1>                0.0000
     14 C14         32.0434  37.8159  35.2305 C.ar           1 <1>                0.0000
     15 C15         31.7275  38.9067  34.2992 C.2            1 <1>                0.0000
     16 O16         30.9056  39.7451  34.6037 O.2            1 <1>                0.0000
     17 C17         31.6233  36.5096  34.9509 C.ar           1 <1>                0.0000
     18 C18         31.9258  35.4939  35.8210 C.ar           1 <1>                0.0000
     19 C19         27.7189  35.8429  38.4031 C.ar           1 <1>                0.0000
     20 C20         26.6638  36.2913  39.1733 C.ar           1 <1>                0.0000
     21 H21         28.1400  36.2379  42.2095 H              1 <1>                0.0000
     22 H22         30.0225  35.4294  40.8458 H              1 <1>                0.0000
     23 H23         32.4833  32.8125  38.3938 H              1 <1>                0.0000
     24 H24         31.7151  33.3813  36.8922 H              1 <1>                0.0000
     25 H25         33.6164  37.2579  38.1695 H              1 <1>                0.0000
     26 H26         33.0922  39.0843  36.6211 H              1 <1>                0.0000
     27 H27         32.2270  38.9622  33.3434 H              1 <1>                0.0000
     28 H28         31.0657  36.3018  34.0498 H              1 <1>                0.0000
     29 H29         31.6023  34.4860  35.6064 H              1 <1>                0.0000
     30 H30         27.6000  35.7325  37.3354 H              1 <1>                0.0000
     31 H31         25.7209  36.5355  38.7068 H              1 <1>                0.0000
     32 H32         30.1732  35.4640  37.3570 H              1 <1>                0.0000
@<TRIPOS>BOND
    1    1    2 1     
    2    2    3 ar    
    3    2   20 ar    
    4    3    4 ar    
    5    3   21 1     
    6    4    5 ar    
    7    4   22 1     
    8    5    6 1     
    9    5   19 ar    
   10    6    7 am    
   11    6   32 1     
   12    7    8 2     
   13    7    9 1     
   14    9   10 1     
   15    9   23 1     
   16    9   24 1     
   17   10   11 1     
   18   11   12 ar    
   19   11   18 ar    
   20   12   13 ar    
   21   12   25 1     
   22   13   14 ar    
   23   13   26 1     
   24   14   15 1     
   25   14   17 ar    
   26   15   16 2     
   27   15   27 1     
   28   17   18 ar    
   29   17   28 1     
   30   18   29 1     
   31   19   20 ar    
   32   19   30 1     
   33   20   31 1     
@<TRIPOS>SUBSTRUCTURE
      1 ****           1
@<TRIPOS>SET
DONOR_HYDROGENS      STATIC     ATOMS    <user>   **** ""
1 32
ATOM$RED        STATIC     ATOMS    COLORGROUP SYSTEM
1 32
@<TRIPOS>COMMENT
> <Gold.Version>
2022.2.0

> <Gold.Id.Protein>
1qkm|1qkm_protein|mol2

> <Gold.Protein.RotatedTorsions>
[  496  491  490  487 ] final   30.95 input  -89.99 | X-H torsion

> <Gold.Protein.ActiveResidues>
 MET295  LEU298  THR299  LEU301  ALA302  GLU305  TRP335  MET336  LEU339  MET340 
 GLY342  LEU343  ARG346  PHE356  ILE373  ILE376  PHE377  LEU380  LYS471  GLY472 
 MET473  HIS475  LEU476  LEU477  ASN478  MET479  VAL484  VAL487 

> <Gold.Protein.RotatedAtoms>
   36.3512   33.7406   42.3816 H   0  0  0  0  0  0  0  0  0  0  0  0  # atno 496  bound_to 491 

> <Gold.Score>
     Score     S(PLP)   S(hbond)     S(cho)   S(metal)  DE(clash)   DE(tors)     intcor
     44.19     -45.78       0.00       0.00       0.00       2.98       1.43       4.26

> <Gold.PLP.Fitness>
44.1852

> <Gold.PLP.PLP>
-45.7775

> <Gold.PLP.part.hbond>
0.0000

> <Gold.PLP.part.metal>
0.0000

> <Gold.PLP.part.buried>
9.4190

> <Gold.PLP.part.nonpolar>
-57.4567

> <Gold.PLP.part.repulsive>
0.2729

> <Gold.PLP.ligand.clash>
2.9820

> <Gold.PLP.ligand.torsion>
1.4348

> <Gold.PLP.Chemscore.Hbond>
0.0000

> <Gold.PLP.Chemscore.CHOScore>
0.0000

> <Gold.PLP.Chemscore.Metal>
0.0000

> <Gold.PLP.Chemscore.Internal.Correction>
4.2593

