#       Name:                EN300-68237_i001
#       Creating user name   aseyller
#       Creation time:       Fri Apr 21 18:36:35 2023


#       File generated by GOLD software.
#

@<TRIPOS>MOLECULE
EN300-68237_i001|benzaldehydes|mol2|585|dock7
    32    33     1
SMALL
USER_CHARGES


@<TRIPOS>ATOM
      1 Cl1         25.2173  38.0409  42.0755 Cl             1 <1>                0.0000
      2 C2          26.2692  36.9966  41.1719 C.ar           1 <1>                0.0000
      3 C3          25.9323  36.6251  39.8822 C.ar           1 <1>                0.0000
      4 C4          26.7677  35.7948  39.1610 C.ar           1 <1>                0.0000
      5 C5          27.9466  35.3327  39.7311 C.ar           1 <1>                0.0000
      6 N6          28.7952  34.4915  39.0022 N.am           1 <1>                0.0000
      7 C7          30.1312  34.6526  39.0774 C.2            1 <1>                0.0000
      8 O8          30.6019  35.4619  39.8486 O.2            1 <1>                0.0000
      9 C9          31.0402  33.8273  38.2035 C.3            1 <1>                0.0000
     10 O10         32.2712  34.5249  38.0038 O.3            1 <1>                0.0000
     11 C11         32.2992  35.4545  37.0162 C.ar           1 <1>                0.0000
     12 C12         31.1382  36.1414  36.6778 C.ar           1 <1>                0.0000
     13 C13         31.1610  37.0816  35.6800 C.ar           1 <1>                0.0000
     14 C14         32.3563  37.3501  35.0016 C.ar           1 <1>                0.0000
     15 C15         32.3867  38.3565  33.9324 C.2            1 <1>                0.0000
     16 O16         31.5012  39.1813  33.8507 O.2            1 <1>                0.0000
     17 C17         33.5227  36.6560  35.3465 C.ar           1 <1>                0.0000
     18 C18         33.4902  35.7214  36.3493 C.ar           1 <1>                0.0000
     19 C19         28.2824  35.7072  41.0254 C.ar           1 <1>                0.0000
     20 C20         27.4461  36.5419  41.7405 C.ar           1 <1>                0.0000
     21 H21         25.0151  36.9844  39.4394 H              1 <1>                0.0000
     22 H22         26.5041  35.5048  38.1546 H              1 <1>                0.0000
     23 H23         31.2389  32.8708  38.6870 H              1 <1>                0.0000
     24 H24         30.5599  33.6548  37.2404 H              1 <1>                0.0000
     25 H25         30.2169  35.9336  37.2016 H              1 <1>                0.0000
     26 H26         30.2587  37.6139  35.4176 H              1 <1>                0.0000
     27 H27         33.1975  38.3621  33.2191 H              1 <1>                0.0000
     28 H28         34.4470  36.8594  34.8264 H              1 <1>                0.0000
     29 H29         34.3891  35.1855  36.6161 H              1 <1>                0.0000
     30 H30         29.1987  35.3491  41.4712 H              1 <1>                0.0000
     31 H31         27.7067  36.8333  42.7472 H              1 <1>                0.0000
     32 H32         28.4218  33.7926  38.4427 H              1 <1>                0.0000
@<TRIPOS>BOND
    1    1    2 1     
    2    2    3 ar    
    3    2   20 ar    
    4    3    4 ar    
    5    3   21 1     
    6    4    5 ar    
    7    4   22 1     
    8    5    6 1     
    9    5   19 ar    
   10    6    7 am    
   11    6   32 1     
   12    7    8 2     
   13    7    9 1     
   14    9   10 1     
   15    9   23 1     
   16    9   24 1     
   17   10   11 1     
   18   11   12 ar    
   19   11   18 ar    
   20   12   13 ar    
   21   12   25 1     
   22   13   14 ar    
   23   13   26 1     
   24   14   15 1     
   25   14   17 ar    
   26   15   16 2     
   27   15   27 1     
   28   17   18 ar    
   29   17   28 1     
   30   18   29 1     
   31   19   20 ar    
   32   19   30 1     
   33   20   31 1     
@<TRIPOS>SUBSTRUCTURE
      1 ****           1
@<TRIPOS>SET
DONOR_HYDROGENS      STATIC     ATOMS    <user>   **** ""
1 32
ATOM$RED        STATIC     ATOMS    COLORGROUP SYSTEM
1 32
@<TRIPOS>COMMENT
> <Gold.Version>
2022.2.0

> <Gold.Id.Protein>
1qkm|1qkm_protein|mol2

> <Gold.Protein.RotatedTorsions>
[  496  491  490  487 ] final  172.32 input  -89.99 | X-H torsion

> <Gold.Protein.ActiveResidues>
 MET295  LEU298  THR299  LEU301  ALA302  GLU305  TRP335  MET336  LEU339  MET340 
 GLY342  LEU343  ARG346  PHE356  ILE373  ILE376  PHE377  LEU380  LYS471  GLY472 
 MET473  HIS475  LEU476  LEU477  ASN478  MET479  VAL484  VAL487 

> <Gold.Protein.RotatedAtoms>
   37.3173   33.3560   40.9367 H   0  0  0  0  0  0  0  0  0  0  0  0  # atno 496  bound_to 491 

> <Gold.Score>
     Score     S(PLP)   S(hbond)     S(cho)   S(metal)  DE(clash)   DE(tors)     intcor
     46.78     -49.91       0.00       0.00       0.00       4.94       1.24       4.29

> <Gold.PLP.Fitness>
46.7843

> <Gold.PLP.PLP>
-49.9088

> <Gold.PLP.part.hbond>
0.0000

> <Gold.PLP.part.metal>
0.0000

> <Gold.PLP.part.buried>
5.5383

> <Gold.PLP.part.nonpolar>
-60.4236

> <Gold.PLP.part.repulsive>
3.7713

> <Gold.PLP.ligand.clash>
4.9367

> <Gold.PLP.ligand.torsion>
1.2379

> <Gold.PLP.Chemscore.Hbond>
0.0000

> <Gold.PLP.Chemscore.CHOScore>
0.0000

> <Gold.PLP.Chemscore.Metal>
0.0000

> <Gold.PLP.Chemscore.Internal.Correction>
4.2881

