#       Name:                EN300-68237_i001
#       Creating user name   aseyller
#       Creation time:       Fri Apr 21 18:36:45 2023


#       File generated by GOLD software.
#

@<TRIPOS>MOLECULE
EN300-68237_i001|benzaldehydes|mol2|585|dock14
    32    33     1
SMALL
USER_CHARGES


@<TRIPOS>ATOM
      1 Cl1         31.6204  41.3348  34.6411 Cl             1 <1>                0.0000
      2 C2          31.4068  39.9792  35.7043 C.ar           1 <1>                0.0000
      3 C3          32.4545  39.1026  35.9250 C.ar           1 <1>                0.0000
      4 C4          32.2872  38.0237  36.7707 C.ar           1 <1>                0.0000
      5 C5          31.0663  37.8188  37.3998 C.ar           1 <1>                0.0000
      6 N6          30.8943  36.7263  38.2577 N.am           1 <1>                0.0000
      7 C7          31.4305  35.5308  37.9424 C.2            1 <1>                0.0000
      8 O8          32.1416  35.4237  36.9656 O.2            1 <1>                0.0000
      9 C9          31.1467  34.3269  38.8034 C.3            1 <1>                0.0000
     10 O10         29.7515  34.0226  38.7519 O.3            1 <1>                0.0000
     11 C11         28.9208  34.8176  39.4718 C.ar           1 <1>                0.0000
     12 C12         27.5863  34.9419  39.1007 C.ar           1 <1>                0.0000
     13 C13         26.7425  35.7444  39.8247 C.ar           1 <1>                0.0000
     14 C14         27.2267  36.4392  40.9400 C.ar           1 <1>                0.0000
     15 C15         26.3275  37.2997  41.7195 C.2            1 <1>                0.0000
     16 O16         25.1360  37.0731  41.7376 O.2            1 <1>                0.0000
     17 C17         28.5713  36.3101  41.3099 C.ar           1 <1>                0.0000
     18 C18         29.4053  35.5010  40.5820 C.ar           1 <1>                0.0000
     19 C19         30.0165  38.6999  37.1766 C.ar           1 <1>                0.0000
     20 C20         30.1906  39.7804  36.3340 C.ar           1 <1>                0.0000
     21 H21         33.4038  39.2622  35.4352 H              1 <1>                0.0000
     22 H22         33.1051  37.3396  36.9424 H              1 <1>                0.0000
     23 H23         31.7183  33.4745  38.4359 H              1 <1>                0.0000
     24 H24         31.4343  34.5406  39.8328 H              1 <1>                0.0000
     25 H25         27.2138  34.4056  38.2404 H              1 <1>                0.0000
     26 H26         25.7066  35.8408  39.5351 H              1 <1>                0.0000
     27 H27         26.7270  38.1342  42.2765 H              1 <1>                0.0000
     28 H28         28.9495  36.8438  42.1692 H              1 <1>                0.0000
     29 H29         30.4424  35.4008  40.8664 H              1 <1>                0.0000
     30 H30         29.0659  38.5428  37.6646 H              1 <1>                0.0000
     31 H31         29.3745  40.4658  36.1601 H              1 <1>                0.0000
     32 H32         30.3890  36.8297  39.0793 H              1 <1>                0.0000
@<TRIPOS>BOND
    1    1    2 1     
    2    2    3 ar    
    3    2   20 ar    
    4    3    4 ar    
    5    3   21 1     
    6    4    5 ar    
    7    4   22 1     
    8    5    6 1     
    9    5   19 ar    
   10    6    7 am    
   11    6   32 1     
   12    7    8 2     
   13    7    9 1     
   14    9   10 1     
   15    9   23 1     
   16    9   24 1     
   17   10   11 1     
   18   11   12 ar    
   19   11   18 ar    
   20   12   13 ar    
   21   12   25 1     
   22   13   14 ar    
   23   13   26 1     
   24   14   15 1     
   25   14   17 ar    
   26   15   16 2     
   27   15   27 1     
   28   17   18 ar    
   29   17   28 1     
   30   18   29 1     
   31   19   20 ar    
   32   19   30 1     
   33   20   31 1     
@<TRIPOS>SUBSTRUCTURE
      1 ****           1
@<TRIPOS>SET
DONOR_HYDROGENS      STATIC     ATOMS    <user>   **** ""
1 32
ATOM$RED        STATIC     ATOMS    COLORGROUP SYSTEM
1 32
@<TRIPOS>COMMENT
> <Gold.Version>
2022.2.0

> <Gold.Id.Protein>
1qkm|1qkm_protein|mol2

> <Gold.Protein.RotatedTorsions>
[  496  491  490  487 ] final -104.24 input  -89.99 | X-H torsion

> <Gold.Protein.ActiveResidues>
 MET295  LEU298  THR299  LEU301  ALA302  GLU305  TRP335  MET336  LEU339  MET340 
 GLY342  LEU343  ARG346  PHE356  ILE373  ILE376  PHE377  LEU380  LYS471  GLY472 
 MET473  HIS475  LEU476  LEU477  ASN478  MET479  VAL484  VAL487 

> <Gold.Protein.RotatedAtoms>
   36.8885   34.5357   40.9254 H   0  0  0  0  0  0  0  0  0  0  0  0  # atno 496  bound_to 491 

> <Gold.Score>
     Score     S(PLP)   S(hbond)     S(cho)   S(metal)  DE(clash)   DE(tors)     intcor
     39.41     -40.74       0.36       0.00       0.00       4.92       0.88       4.26

> <Gold.PLP.Fitness>
39.4051

> <Gold.PLP.PLP>
-40.7354

> <Gold.PLP.part.hbond>
-1.0000

> <Gold.PLP.part.metal>
0.0000

> <Gold.PLP.part.buried>
-2.1684

> <Gold.PLP.part.nonpolar>
-40.0744

> <Gold.PLP.part.repulsive>
0.3109

> <Gold.PLP.ligand.clash>
4.9166

> <Gold.PLP.ligand.torsion>
0.8837

> <Gold.PLP.Chemscore.Hbond>
0.3648

> <Gold.PLP.Chemscore.CHOScore>
0.0000

> <Gold.PLP.Chemscore.Metal>
0.0000

> <Gold.Chemscore.Hbonds>
donor molecule, donor type, donor heavy atom, donor atom, acceptor molecule, acceptor atom, score
      P1  H  1258  1270       L1    16  0.36

> <Gold.PLP.Chemscore.Internal.Correction>
4.2593

