#       Name:                EN300-68237_i001
#       Creating user name   aseyller
#       Creation time:       Fri Apr 21 18:36:39 2023


#       File generated by GOLD software.
#

@<TRIPOS>MOLECULE
EN300-68237_i001|benzaldehydes|mol2|585|dock10
    32    33     1
SMALL
USER_CHARGES


@<TRIPOS>ATOM
      1 Cl1         32.4058  40.1639  33.1540 Cl             1 <1>                0.0000
      2 C2          31.9912  38.9137  34.2848 C.ar           1 <1>                0.0000
      3 C3          30.7229  38.8747  34.8369 C.ar           1 <1>                0.0000
      4 C4          30.3904  37.8808  35.7363 C.ar           1 <1>                0.0000
      5 C5          31.3300  36.9203  36.0867 C.ar           1 <1>                0.0000
      6 N6          30.9954  35.9117  36.9978 N.am           1 <1>                0.0000
      7 C7          31.8919  35.5141  37.9223 C.2            1 <1>                0.0000
      8 O8          32.9521  36.0939  38.0276 O.2            1 <1>                0.0000
      9 C9          31.5771  34.3491  38.8251 C.3            1 <1>                0.0000
     10 O10         30.2325  33.9212  38.5993 O.3            1 <1>                0.0000
     11 C11         29.2449  34.6972  39.1119 C.ar           1 <1>                0.0000
     12 C12         27.9881  34.7025  38.5165 C.ar           1 <1>                0.0000
     13 C13         26.9865  35.4854  39.0305 C.ar           1 <1>                0.0000
     14 C14         27.2309  36.2802  40.1572 C.ar           1 <1>                0.0000
     15 C15         26.1617  37.1203  40.7123 C.2            1 <1>                0.0000
     16 O16         25.3270  37.6038  39.9770 O.2            1 <1>                0.0000
     17 C17         28.4981  36.2708  40.7534 C.ar           1 <1>                0.0000
     18 C18         29.4912  35.4805  40.2345 C.ar           1 <1>                0.0000
     19 C19         32.6020  36.9618  35.5313 C.ar           1 <1>                0.0000
     20 C20         32.9278  37.9546  34.6282 C.ar           1 <1>                0.0000
     21 H21         29.9925  39.6221  34.5643 H              1 <1>                0.0000
     22 H22         29.4005  37.8509  36.1672 H              1 <1>                0.0000
     23 H23         32.2607  33.5278  38.6101 H              1 <1>                0.0000
     24 H24         31.6915  34.6543  39.8652 H              1 <1>                0.0000
     25 H25         27.8006  34.0892  37.6476 H              1 <1>                0.0000
     26 H26         26.0111  35.4893  38.5669 H              1 <1>                0.0000
     27 H27         26.1187  37.3073  41.7750 H              1 <1>                0.0000
     28 H28         28.6916  36.8820  41.6224 H              1 <1>                0.0000
     29 H29         30.4688  35.4725  40.6934 H              1 <1>                0.0000
     30 H30         33.3347  36.2159  35.8021 H              1 <1>                0.0000
     31 H31         33.9170  37.9874  34.1960 H              1 <1>                0.0000
     32 H32         30.1183  35.4989  36.9638 H              1 <1>                0.0000
@<TRIPOS>BOND
    1    1    2 1     
    2    2    3 ar    
    3    2   20 ar    
    4    3    4 ar    
    5    3   21 1     
    6    4    5 ar    
    7    4   22 1     
    8    5    6 1     
    9    5   19 ar    
   10    6    7 am    
   11    6   32 1     
   12    7    8 2     
   13    7    9 1     
   14    9   10 1     
   15    9   23 1     
   16    9   24 1     
   17   10   11 1     
   18   11   12 ar    
   19   11   18 ar    
   20   12   13 ar    
   21   12   25 1     
   22   13   14 ar    
   23   13   26 1     
   24   14   15 1     
   25   14   17 ar    
   26   15   16 2     
   27   15   27 1     
   28   17   18 ar    
   29   17   28 1     
   30   18   29 1     
   31   19   20 ar    
   32   19   30 1     
   33   20   31 1     
@<TRIPOS>SUBSTRUCTURE
      1 ****           1
@<TRIPOS>SET
DONOR_HYDROGENS      STATIC     ATOMS    <user>   **** ""
1 32
ATOM$RED        STATIC     ATOMS    COLORGROUP SYSTEM
1 32
@<TRIPOS>COMMENT
> <Gold.Version>
2022.2.0

> <Gold.Id.Protein>
1qkm|1qkm_protein|mol2

> <Gold.Protein.RotatedTorsions>
[  496  491  490  487 ] final   51.84 input  -89.99 | X-H torsion

> <Gold.Protein.ActiveResidues>
 MET295  LEU298  THR299  LEU301  ALA302  GLU305  TRP335  MET336  LEU339  MET340 
 GLY342  LEU343  ARG346  PHE356  ILE373  ILE376  PHE377  LEU380  LYS471  GLY472 
 MET473  HIS475  LEU476  LEU477  ASN478  MET479  VAL484  VAL487 

> <Gold.Protein.RotatedAtoms>
   36.4866   33.4286   42.3461 H   0  0  0  0  0  0  0  0  0  0  0  0  # atno 496  bound_to 491 

> <Gold.Score>
     Score     S(PLP)   S(hbond)     S(cho)   S(metal)  DE(clash)   DE(tors)     intcor
     39.35     -40.04       0.00       0.00       0.00       3.01       0.97       4.26

> <Gold.PLP.Fitness>
39.3462

> <Gold.PLP.PLP>
-40.0435

> <Gold.PLP.part.hbond>
0.0000

> <Gold.PLP.part.metal>
0.0000

> <Gold.PLP.part.buried>
-0.3911

> <Gold.PLP.part.nonpolar>
-41.8603

> <Gold.PLP.part.repulsive>
0.1902

> <Gold.PLP.ligand.clash>
3.0068

> <Gold.PLP.ligand.torsion>
0.9749

> <Gold.PLP.Chemscore.Hbond>
0.0000

> <Gold.PLP.Chemscore.CHOScore>
0.0000

> <Gold.PLP.Chemscore.Metal>
0.0000

> <Gold.PLP.Chemscore.Internal.Correction>
4.2593

