#       Name:                EN300-68237_i001
#       Creating user name   aseyller
#       Creation time:       Fri Apr 21 18:36:51 2023


#       File generated by GOLD software.
#

@<TRIPOS>MOLECULE
EN300-68237_i001|benzaldehydes|mol2|585|dock18
    32    33     1
SMALL
USER_CHARGES


@<TRIPOS>ATOM
      1 Cl1         24.5323  37.0786  42.1095 Cl             1 <1>                0.0000
      2 C2          26.1429  36.7145  41.5738 C.ar           1 <1>                0.0000
      3 C3          26.3387  35.8456  40.5147 C.ar           1 <1>                0.0000
      4 C4          27.6190  35.5547  40.0863 C.ar           1 <1>                0.0000
      5 C5          28.7104  36.1348  40.7194 C.ar           1 <1>                0.0000
      6 N6          30.0090  35.8420  40.2868 N.am           1 <1>                0.0000
      7 C7          30.2719  35.7322  38.9696 C.2            1 <1>                0.0000
      8 O8          29.4074  35.9807  38.1559 O.2            1 <1>                0.0000
      9 C9          31.6400  35.3007  38.5076 C.3            1 <1>                0.0000
     10 O10         31.7069  35.3756  37.0821 O.3            1 <1>                0.0000
     11 C11         31.5233  36.5965  36.5201 C.ar           1 <1>                0.0000
     12 C12         31.7622  37.7458  37.2660 C.ar           1 <1>                0.0000
     13 C13         31.5777  38.9823  36.7028 C.ar           1 <1>                0.0000
     14 C14         31.1484  39.0867  35.3739 C.ar           1 <1>                0.0000
     15 C15         30.9497  40.4084  34.7654 C.2            1 <1>                0.0000
     16 O16         30.3979  41.2879  35.3925 O.2            1 <1>                0.0000
     17 C17         30.9098  37.9263  34.6270 C.ar           1 <1>                0.0000
     18 C18         31.1023  36.6947  35.1982 C.ar           1 <1>                0.0000
     19 C19         28.5111  37.0064  41.7818 C.ar           1 <1>                0.0000
     20 C20         27.2285  37.2981  42.2030 C.ar           1 <1>                0.0000
     21 H21         25.4896  35.3945  40.0229 H              1 <1>                0.0000
     22 H22         27.7714  34.8763  39.2599 H              1 <1>                0.0000
     23 H23         32.3939  35.9574  38.9417 H              1 <1>                0.0000
     24 H24         31.8243  34.2749  38.8266 H              1 <1>                0.0000
     25 H25         32.0932  37.6643  38.2907 H              1 <1>                0.0000
     26 H26         31.7628  39.8741  37.2831 H              1 <1>                0.0000
     27 H27         31.2949  40.5973  33.7598 H              1 <1>                0.0000
     28 H28         30.5787  38.0014  33.6019 H              1 <1>                0.0000
     29 H29         30.9186  35.7991  34.6231 H              1 <1>                0.0000
     30 H30         29.3582  37.4589  42.2760 H              1 <1>                0.0000
     31 H31         27.0731  37.9758  43.0294 H              1 <1>                0.0000
     32 H32         30.7197  35.7181  40.9352 H              1 <1>                0.0000
@<TRIPOS>BOND
    1    1    2 1     
    2    2    3 ar    
    3    2   20 ar    
    4    3    4 ar    
    5    3   21 1     
    6    4    5 ar    
    7    4   22 1     
    8    5    6 1     
    9    5   19 ar    
   10    6    7 am    
   11    6   32 1     
   12    7    8 2     
   13    7    9 1     
   14    9   10 1     
   15    9   23 1     
   16    9   24 1     
   17   10   11 1     
   18   11   12 ar    
   19   11   18 ar    
   20   12   13 ar    
   21   12   25 1     
   22   13   14 ar    
   23   13   26 1     
   24   14   15 1     
   25   14   17 ar    
   26   15   16 2     
   27   15   27 1     
   28   17   18 ar    
   29   17   28 1     
   30   18   29 1     
   31   19   20 ar    
   32   19   30 1     
   33   20   31 1     
@<TRIPOS>SUBSTRUCTURE
      1 ****           1
@<TRIPOS>SET
DONOR_HYDROGENS      STATIC     ATOMS    <user>   **** ""
1 32
ATOM$RED        STATIC     ATOMS    COLORGROUP SYSTEM
1 32
@<TRIPOS>COMMENT
> <Gold.Version>
2022.2.0

> <Gold.Id.Protein>
1qkm|1qkm_protein|mol2

> <Gold.Protein.RotatedTorsions>
[  496  491  490  487 ] final  164.27 input  -89.99 | X-H torsion

> <Gold.Protein.ActiveResidues>
 MET295  LEU298  THR299  LEU301  ALA302  GLU305  TRP335  MET336  LEU339  MET340 
 GLY342  LEU343  ARG346  PHE356  ILE373  ILE376  PHE377  LEU380  LYS471  GLY472 
 MET473  HIS475  LEU476  LEU477  ASN478  MET479  VAL484  VAL487 

> <Gold.Protein.RotatedAtoms>
   37.3066   33.2546   41.0212 H   0  0  0  0  0  0  0  0  0  0  0  0  # atno 496  bound_to 491 

> <Gold.Score>
     Score     S(PLP)   S(hbond)     S(cho)   S(metal)  DE(clash)   DE(tors)     intcor
     38.88     -37.05       1.00       0.00       0.00       3.40       1.01       4.25

> <Gold.PLP.Fitness>
38.8768

> <Gold.PLP.PLP>
-37.0475

> <Gold.PLP.part.hbond>
-1.0000

> <Gold.PLP.part.metal>
0.0000

> <Gold.PLP.part.buried>
8.9021

> <Gold.PLP.part.nonpolar>
-44.2452

> <Gold.PLP.part.repulsive>
0.1284

> <Gold.PLP.ligand.clash>
3.4009

> <Gold.PLP.ligand.torsion>
1.0110

> <Gold.PLP.Chemscore.Hbond>
1.0000

> <Gold.PLP.Chemscore.CHOScore>
0.0000

> <Gold.PLP.Chemscore.Metal>
0.0000

> <Gold.Chemscore.Hbonds>
donor molecule, donor type, donor heavy atom, donor atom, acceptor molecule, acceptor atom, score
      L1  H     6    32       P1   470  1.00

> <Gold.PLP.Chemscore.Internal.Correction>
4.2522

