#       Name:                EN300-68237_i001
#       Creating user name   aseyller
#       Creation time:       Fri Apr 21 18:36:32 2023


#       File generated by GOLD software.
#

@<TRIPOS>MOLECULE
EN300-68237_i001|benzaldehydes|mol2|585|dock5
    32    33     1
SMALL
USER_CHARGES


@<TRIPOS>ATOM
      1 Cl1         25.2473  37.5830  41.8216 Cl             1 <1>                0.0000
      2 C2          26.4001  36.6851  40.8843 C.ar           1 <1>                0.0000
      3 C3          26.1507  36.4239  39.5485 C.ar           1 <1>                0.0000
      4 C4          27.0664  35.7102  38.8005 C.ar           1 <1>                0.0000
      5 C5          28.2383  35.2547  39.3901 C.ar           1 <1>                0.0000
      6 N6          29.1683  34.5316  38.6341 N.am           1 <1>                0.0000
      7 C7          30.4877  34.7511  38.7993 C.2            1 <1>                0.0000
      8 O8          30.8729  35.5043  39.6686 O.2            1 <1>                0.0000
      9 C9          31.4844  34.0609  37.9042 C.3            1 <1>                0.0000
     10 O10         32.4918  34.9927  37.5054 O.3            1 <1>                0.0000
     11 C11         32.0713  36.1391  36.9146 C.ar           1 <1>                0.0000
     12 C12         30.8940  36.1458  36.1743 C.ar           1 <1>                0.0000
     13 C13         30.4647  37.3018  35.5747 C.ar           1 <1>                0.0000
     14 C14         31.2139  38.4773  35.7092 C.ar           1 <1>                0.0000
     15 C15         30.7586  39.7185  35.0697 C.2            1 <1>                0.0000
     16 O16         30.3983  40.6549  35.7511 O.2            1 <1>                0.0000
     17 C17         32.3984  38.4653  36.4563 C.ar           1 <1>                0.0000
     18 C18         32.8160  37.3052  37.0560 C.ar           1 <1>                0.0000
     19 C19         28.4862  35.5182  40.7307 C.ar           1 <1>                0.0000
     20 C20         27.5696  36.2369  41.4729 C.ar           1 <1>                0.0000
     21 H21         25.2390  36.7781  39.0906 H              1 <1>                0.0000
     22 H22         26.8712  35.5063  37.7581 H              1 <1>                0.0000
     23 H23         31.9469  33.2348  38.4444 H              1 <1>                0.0000
     24 H24         30.9744  33.6770  37.0207 H              1 <1>                0.0000
     25 H25         30.3169  35.2387  36.0711 H              1 <1>                0.0000
     26 H26         29.5507  37.3057  34.9994 H              1 <1>                0.0000
     27 H27         30.7447  39.7973  33.9928 H              1 <1>                0.0000
     28 H28         32.9797  39.3692  36.5631 H              1 <1>                0.0000
     29 H29         33.7294  37.2948  37.6323 H              1 <1>                0.0000
     30 H30         29.3968  35.1650  41.1916 H              1 <1>                0.0000
     31 H31         27.7619  36.4420  42.5156 H              1 <1>                0.0000
     32 H32         28.8631  33.8724  37.9912 H              1 <1>                0.0000
@<TRIPOS>BOND
    1    1    2 1     
    2    2    3 ar    
    3    2   20 ar    
    4    3    4 ar    
    5    3   21 1     
    6    4    5 ar    
    7    4   22 1     
    8    5    6 1     
    9    5   19 ar    
   10    6    7 am    
   11    6   32 1     
   12    7    8 2     
   13    7    9 1     
   14    9   10 1     
   15    9   23 1     
   16    9   24 1     
   17   10   11 1     
   18   11   12 ar    
   19   11   18 ar    
   20   12   13 ar    
   21   12   25 1     
   22   13   14 ar    
   23   13   26 1     
   24   14   15 1     
   25   14   17 ar    
   26   15   16 2     
   27   15   27 1     
   28   17   18 ar    
   29   17   28 1     
   30   18   29 1     
   31   19   20 ar    
   32   19   30 1     
   33   20   31 1     
@<TRIPOS>SUBSTRUCTURE
      1 ****           1
@<TRIPOS>SET
DONOR_HYDROGENS      STATIC     ATOMS    <user>   **** ""
1 32
ATOM$RED        STATIC     ATOMS    COLORGROUP SYSTEM
1 32
@<TRIPOS>COMMENT
> <Gold.Version>
2022.2.0

> <Gold.Id.Protein>
1qkm|1qkm_protein|mol2

> <Gold.Protein.RotatedTorsions>
[  496  491  490  487 ] final  141.78 input  -89.99 | X-H torsion

> <Gold.Protein.ActiveResidues>
 MET295  LEU298  THR299  LEU301  ALA302  GLU305  TRP335  MET336  LEU339  MET340 
 GLY342  LEU343  ARG346  PHE356  ILE373  ILE376  PHE377  LEU380  LYS471  GLY472 
 MET473  HIS475  LEU476  LEU477  ASN478  MET479  VAL484  VAL487 

> <Gold.Protein.RotatedAtoms>
   37.2239   33.0376   41.3064 H   0  0  0  0  0  0  0  0  0  0  0  0  # atno 496  bound_to 491 

> <Gold.Score>
     Score     S(PLP)   S(hbond)     S(cho)   S(metal)  DE(clash)   DE(tors)     intcor
     45.16     -48.86       0.00       0.00       0.00       4.88       1.55       4.29

> <Gold.PLP.Fitness>
45.1635

> <Gold.PLP.PLP>
-48.8559

> <Gold.PLP.part.hbond>
0.0000

> <Gold.PLP.part.metal>
0.0000

> <Gold.PLP.part.buried>
1.6108

> <Gold.PLP.part.nonpolar>
-54.7766

> <Gold.PLP.part.repulsive>
3.3564

> <Gold.PLP.ligand.clash>
4.8775

> <Gold.PLP.ligand.torsion>
1.5515

> <Gold.PLP.Chemscore.Hbond>
0.0000

> <Gold.PLP.Chemscore.CHOScore>
0.0000

> <Gold.PLP.Chemscore.Metal>
0.0000

> <Gold.PLP.Chemscore.Internal.Correction>
4.2881

