#       Name:                EN300-68237_i001
#       Creating user name   aseyller
#       Creation time:       Fri Apr 21 18:36:49 2023


#       File generated by GOLD software.
#

@<TRIPOS>MOLECULE
EN300-68237_i001|benzaldehydes|mol2|585|dock17
    32    33     1
SMALL
USER_CHARGES


@<TRIPOS>ATOM
      1 Cl1         25.0149  37.6083  41.0132 Cl             1 <1>                0.0000
      2 C2          26.5441  36.8445  40.7101 C.ar           1 <1>                0.0000
      3 C3          27.4533  36.6860  41.7412 C.ar           1 <1>                0.0000
      4 C4          28.6704  36.0783  41.5027 C.ar           1 <1>                0.0000
      5 C5          28.9814  35.6263  40.2270 C.ar           1 <1>                0.0000
      6 N6          30.2140  35.0097  39.9829 N.am           1 <1>                0.0000
      7 C7          30.2887  33.9649  39.1348 C.2            1 <1>                0.0000
      8 O8          29.3078  33.6194  38.5104 O.2            1 <1>                0.0000
      9 C9          31.5907  33.2259  38.9622 C.3            1 <1>                0.0000
     10 O10         32.0787  33.4245  37.6339 O.3            1 <1>                0.0000
     11 C11         32.2302  34.7070  37.2186 C.ar           1 <1>                0.0000
     12 C12         32.0895  35.0204  35.8710 C.ar           1 <1>                0.0000
     13 C13         32.2420  36.3152  35.4461 C.ar           1 <1>                0.0000
     14 C14         32.5396  37.3228  36.3719 C.ar           1 <1>                0.0000
     15 C15         32.7036  38.7113  35.9225 C.2            1 <1>                0.0000
     16 O16         31.8447  39.5326  36.1651 O.2            1 <1>                0.0000
     17 C17         32.6797  37.0020  37.7279 C.ar           1 <1>                0.0000
     18 C18         32.5201  35.7050  38.1430 C.ar           1 <1>                0.0000
     19 C19         28.0672  35.7866  39.1942 C.ar           1 <1>                0.0000
     20 C20         26.8493  36.3902  39.4391 C.ar           1 <1>                0.0000
     21 H21         27.2111  37.0379  42.7330 H              1 <1>                0.0000
     22 H22         29.3798  35.9550  42.3076 H              1 <1>                0.0000
     23 H23         32.3208  33.6041  39.6778 H              1 <1>                0.0000
     24 H24         31.4301  32.1617  39.1350 H              1 <1>                0.0000
     25 H25         31.8599  34.2426  35.1578 H              1 <1>                0.0000
     26 H26         32.1333  36.5573  34.3992 H              1 <1>                0.0000
     27 H27         33.5888  39.0010  35.3760 H              1 <1>                0.0000
     28 H28         32.9092  37.7754  38.4458 H              1 <1>                0.0000
     29 H29         32.6280  35.4564  39.1885 H              1 <1>                0.0000
     30 H30         28.3067  35.4360  38.2012 H              1 <1>                0.0000
     31 H31         26.1380  36.5153  38.6361 H              1 <1>                0.0000
     32 H32         31.0145  35.3343  40.4241 H              1 <1>                0.0000
@<TRIPOS>BOND
    1    1    2 1     
    2    2    3 ar    
    3    2   20 ar    
    4    3    4 ar    
    5    3   21 1     
    6    4    5 ar    
    7    4   22 1     
    8    5    6 1     
    9    5   19 ar    
   10    6    7 am    
   11    6   32 1     
   12    7    8 2     
   13    7    9 1     
   14    9   10 1     
   15    9   23 1     
   16    9   24 1     
   17   10   11 1     
   18   11   12 ar    
   19   11   18 ar    
   20   12   13 ar    
   21   12   25 1     
   22   13   14 ar    
   23   13   26 1     
   24   14   15 1     
   25   14   17 ar    
   26   15   16 2     
   27   15   27 1     
   28   17   18 ar    
   29   17   28 1     
   30   18   29 1     
   31   19   20 ar    
   32   19   30 1     
   33   20   31 1     
@<TRIPOS>SUBSTRUCTURE
      1 ****           1
@<TRIPOS>SET
DONOR_HYDROGENS      STATIC     ATOMS    <user>   **** ""
1 32
ATOM$RED        STATIC     ATOMS    COLORGROUP SYSTEM
1 32
@<TRIPOS>COMMENT
> <Gold.Version>
2022.2.0

> <Gold.Id.Protein>
1qkm|1qkm_protein|mol2

> <Gold.Protein.RotatedTorsions>
[  496  491  490  487 ] final -143.09 input  -89.99 | X-H torsion

> <Gold.Protein.ActiveResidues>
 MET295  LEU298  THR299  LEU301  ALA302  GLU305  TRP335  MET336  LEU339  MET340 
 GLY342  LEU343  ARG346  PHE356  ILE373  ILE376  PHE377  LEU380  LYS471  GLY472 
 MET473  HIS475  LEU476  LEU477  ASN478  MET479  VAL484  VAL487 

> <Gold.Protein.RotatedAtoms>
   37.1929   34.0269   40.7208 H   0  0  0  0  0  0  0  0  0  0  0  0  # atno 496  bound_to 491 

> <Gold.Score>
     Score     S(PLP)   S(hbond)     S(cho)   S(metal)  DE(clash)   DE(tors)     intcor
     40.44     -42.43       0.75       0.00       0.00       5.73       1.39       4.25

> <Gold.PLP.Fitness>
40.4370

> <Gold.PLP.PLP>
-42.4328

> <Gold.PLP.part.hbond>
-1.0000

> <Gold.PLP.part.metal>
0.0000

> <Gold.PLP.part.buried>
5.6871

> <Gold.PLP.part.nonpolar>
-49.0199

> <Gold.PLP.part.repulsive>
0.1244

> <Gold.PLP.ligand.clash>
5.7280

> <Gold.PLP.ligand.torsion>
1.3880

> <Gold.PLP.Chemscore.Hbond>
0.7520

> <Gold.PLP.Chemscore.CHOScore>
0.0000

> <Gold.PLP.Chemscore.Metal>
0.0000

> <Gold.Chemscore.Hbonds>
donor molecule, donor type, donor heavy atom, donor atom, acceptor molecule, acceptor atom, score
      L1  H     6    32       P1   470  0.75

> <Gold.PLP.Chemscore.Internal.Correction>
4.2522

