#       Name:                EN300-68237_i001
#       Creating user name   aseyller
#       Creation time:       Fri Apr 21 18:36:27 2023


#       File generated by GOLD software.
#

@<TRIPOS>MOLECULE
EN300-68237_i001|benzaldehydes|mol2|585|dock1
    32    33     1
SMALL
USER_CHARGES


@<TRIPOS>ATOM
      1 Cl1         32.4103  40.2848  33.4062 Cl             1 <1>                0.0000
      2 C2          31.8295  39.1706  34.6041 C.ar           1 <1>                0.0000
      3 C3          32.3693  37.8990  34.6841 C.ar           1 <1>                0.0000
      4 C4          31.9093  37.0109  35.6365 C.ar           1 <1>                0.0000
      5 C5          30.9041  37.3950  36.5143 C.ar           1 <1>                0.0000
      6 N6          30.4364  36.4970  37.4807 N.am           1 <1>                0.0000
      7 C7          31.3031  35.6970  38.1329 C.2            1 <1>                0.0000
      8 O8          32.4961  35.8211  37.9527 O.2            1 <1>                0.0000
      9 C9          30.7899  34.6485  39.0860 C.3            1 <1>                0.0000
     10 O10         29.4176  34.3734  38.7977 O.3            1 <1>                0.0000
     11 C11         28.4899  35.1156  39.4523 C.ar           1 <1>                0.0000
     12 C12         27.2640  35.3802  38.8512 C.ar           1 <1>                0.0000
     13 C13         26.3230  36.1303  39.5085 C.ar           1 <1>                0.0000
     14 C14         26.5980  36.6300  40.7875 C.ar           1 <1>                0.0000
     15 C15         25.5936  37.4335  41.4963 C.2            1 <1>                0.0000
     16 O16         25.6850  37.5991  42.6944 O.2            1 <1>                0.0000
     17 C17         27.8337  36.3602  41.3886 C.ar           1 <1>                0.0000
     18 C18         28.7658  35.6047  40.7248 C.ar           1 <1>                0.0000
     19 C19         30.3641  38.6716  36.4319 C.ar           1 <1>                0.0000
     20 C20         30.8314  39.5578  35.4811 C.ar           1 <1>                0.0000
     21 H21         33.1508  37.6007  34.0010 H              1 <1>                0.0000
     22 H22         32.3306  36.0185  35.6983 H              1 <1>                0.0000
     23 H23         31.3752  33.7360  38.9717 H              1 <1>                0.0000
     24 H24         30.8803  35.0124  40.1094 H              1 <1>                0.0000
     25 H25         27.0529  34.9945  37.8648 H              1 <1>                0.0000
     26 H26         25.3716  36.3359  39.0405 H              1 <1>                0.0000
     27 H27         24.7738  37.8769  40.9508 H              1 <1>                0.0000
     28 H28         28.0507  36.7431  42.3747 H              1 <1>                0.0000
     29 H29         29.7192  35.3961  41.1873 H              1 <1>                0.0000
     30 H30         29.5822  38.9728  37.1133 H              1 <1>                0.0000
     31 H31         30.4117  40.5507  35.4166 H              1 <1>                0.0000
     32 H32         29.4884  36.4504  37.6811 H              1 <1>                0.0000
@<TRIPOS>BOND
    1    1    2 1     
    2    2    3 ar    
    3    2   20 ar    
    4    3    4 ar    
    5    3   21 1     
    6    4    5 ar    
    7    4   22 1     
    8    5    6 1     
    9    5   19 ar    
   10    6    7 am    
   11    6   32 1     
   12    7    8 2     
   13    7    9 1     
   14    9   10 1     
   15    9   23 1     
   16    9   24 1     
   17   10   11 1     
   18   11   12 ar    
   19   11   18 ar    
   20   12   13 ar    
   21   12   25 1     
   22   13   14 ar    
   23   13   26 1     
   24   14   15 1     
   25   14   17 ar    
   26   15   16 2     
   27   15   27 1     
   28   17   18 ar    
   29   17   28 1     
   30   18   29 1     
   31   19   20 ar    
   32   19   30 1     
   33   20   31 1     
@<TRIPOS>SUBSTRUCTURE
      1 ****           1
@<TRIPOS>SET
DONOR_HYDROGENS      STATIC     ATOMS    <user>   **** ""
1 32
ATOM$RED        STATIC     ATOMS    COLORGROUP SYSTEM
1 32
@<TRIPOS>COMMENT
> <Gold.Version>
2022.2.0

> <Gold.Id.Protein>
1qkm|1qkm_protein|mol2

> <Gold.Protein.RotatedTorsions>
[  496  491  490  487 ] final -166.01 input  -89.99 | X-H torsion

> <Gold.Protein.ActiveResidues>
 MET295  LEU298  THR299  LEU301  ALA302  GLU305  TRP335  MET336  LEU339  MET340 
 GLY342  LEU343  ARG346  PHE356  ILE373  ILE376  PHE377  LEU380  LYS471  GLY472 
 MET473  HIS475  LEU476  LEU477  ASN478  MET479  VAL484  VAL487 

> <Gold.Protein.RotatedAtoms>
   37.2946   33.6699   40.7735 H   0  0  0  0  0  0  0  0  0  0  0  0  # atno 496  bound_to 491 

> <Gold.Score>
     Score     S(PLP)   S(hbond)     S(cho)   S(metal)  DE(clash)   DE(tors)     intcor
     50.44     -51.26       0.00       0.00       0.00       2.89       1.23       4.52

> <Gold.PLP.Fitness>
50.4353

> <Gold.PLP.PLP>
-51.2599

> <Gold.PLP.part.hbond>
-0.7590

> <Gold.PLP.part.metal>
0.0000

> <Gold.PLP.part.buried>
-3.7942

> <Gold.PLP.part.nonpolar>
-48.4442

> <Gold.PLP.part.repulsive>
0.9067

> <Gold.PLP.ligand.clash>
2.8913

> <Gold.PLP.ligand.torsion>
1.2274

> <Gold.PLP.Chemscore.Hbond>
0.0000

> <Gold.PLP.Chemscore.CHOScore>
0.0000

> <Gold.PLP.Chemscore.Metal>
0.0000

> <Gold.PLP.Chemscore.Internal.Correction>
4.5215

