#       Name:                EN300-68237_i001
#       Creating user name   aseyller
#       Creation time:       Fri Apr 21 18:36:42 2023


#       File generated by GOLD software.
#

@<TRIPOS>MOLECULE
EN300-68237_i001|benzaldehydes|mol2|585|dock12
    32    33     1
SMALL
USER_CHARGES


@<TRIPOS>ATOM
      1 Cl1         25.0725  36.4111  41.1843 Cl             1 <1>                0.0000
      2 C2          26.6407  36.3696  40.4407 C.ar           1 <1>                0.0000
      3 C3          27.6109  35.5083  40.9223 C.ar           1 <1>                0.0000
      4 C4          28.8590  35.4731  40.3321 C.ar           1 <1>                0.0000
      5 C5          29.1401  36.3030  39.2547 C.ar           1 <1>                0.0000
      6 N6          30.4041  36.2689  38.6546 N.am           1 <1>                0.0000
      7 C7          31.0338  35.0907  38.4760 C.2            1 <1>                0.0000
      8 O8          30.4671  34.0530  38.7467 O.2            1 <1>                0.0000
      9 C9          32.4421  35.0626  37.9400 C.3            1 <1>                0.0000
     10 O10         32.4152  35.2321  36.5213 O.3            1 <1>                0.0000
     11 C11         32.0692  36.4577  36.0539 C.ar           1 <1>                0.0000
     12 C12         32.3589  37.5926  36.8037 C.ar           1 <1>                0.0000
     13 C13         32.0110  38.8337  36.3360 C.ar           1 <1>                0.0000
     14 C14         31.3630  38.9573  35.1007 C.ar           1 <1>                0.0000
     15 C15         30.9885  40.2841  34.5946 C.2            1 <1>                0.0000
     16 O16         30.8020  41.1982  35.3696 O.2            1 <1>                0.0000
     17 C17         31.0740  37.8114  34.3493 C.ar           1 <1>                0.0000
     18 C18         31.4309  36.5754  34.8238 C.ar           1 <1>                0.0000
     19 C19         28.1647  37.1662  38.7735 C.ar           1 <1>                0.0000
     20 C20         26.9164  37.1938  39.3638 C.ar           1 <1>                0.0000
     21 H21         27.3919  34.8634  41.7604 H              1 <1>                0.0000
     22 H22         29.6160  34.8010  40.7085 H              1 <1>                0.0000
     23 H23         33.0189  35.8697  38.3915 H              1 <1>                0.0000
     24 H24         32.9041  34.1057  38.1828 H              1 <1>                0.0000
     25 H25         32.8586  37.4962  37.7563 H              1 <1>                0.0000
     26 H26         32.2358  39.7143  36.9194 H              1 <1>                0.0000
     27 H27         30.8791  40.4457  33.5324 H              1 <1>                0.0000
     28 H28         30.5746  37.9013  33.3960 H              1 <1>                0.0000
     29 H29         31.2085  35.6910  34.2452 H              1 <1>                0.0000
     30 H30         28.3808  37.8127  37.9357 H              1 <1>                0.0000
     31 H31         26.1576  37.8652  38.9899 H              1 <1>                0.0000
     32 H32         30.8270  37.0932  38.3673 H              1 <1>                0.0000
@<TRIPOS>BOND
    1    1    2 1     
    2    2    3 ar    
    3    2   20 ar    
    4    3    4 ar    
    5    3   21 1     
    6    4    5 ar    
    7    4   22 1     
    8    5    6 1     
    9    5   19 ar    
   10    6    7 am    
   11    6   32 1     
   12    7    8 2     
   13    7    9 1     
   14    9   10 1     
   15    9   23 1     
   16    9   24 1     
   17   10   11 1     
   18   11   12 ar    
   19   11   18 ar    
   20   12   13 ar    
   21   12   25 1     
   22   13   14 ar    
   23   13   26 1     
   24   14   15 1     
   25   14   17 ar    
   26   15   16 2     
   27   15   27 1     
   28   17   18 ar    
   29   17   28 1     
   30   18   29 1     
   31   19   20 ar    
   32   19   30 1     
   33   20   31 1     
@<TRIPOS>SUBSTRUCTURE
      1 ****           1
@<TRIPOS>SET
DONOR_HYDROGENS      STATIC     ATOMS    <user>   **** ""
1 32
ATOM$RED        STATIC     ATOMS    COLORGROUP SYSTEM
1 32
@<TRIPOS>COMMENT
> <Gold.Version>
2022.2.0

> <Gold.Id.Protein>
1qkm|1qkm_protein|mol2

> <Gold.Protein.RotatedTorsions>
[  496  491  490  487 ] final -171.70 input  -89.99 | X-H torsion

> <Gold.Protein.ActiveResidues>
 MET295  LEU298  THR299  LEU301  ALA302  GLU305  TRP335  MET336  LEU339  MET340 
 GLY342  LEU343  ARG346  PHE356  ILE373  ILE376  PHE377  LEU380  LYS471  GLY472 
 MET473  HIS475  LEU476  LEU477  ASN478  MET479  VAL484  VAL487 

> <Gold.Protein.RotatedAtoms>
   37.3078   33.5833   40.8064 H   0  0  0  0  0  0  0  0  0  0  0  0  # atno 496  bound_to 491 

> <Gold.Score>
     Score     S(PLP)   S(hbond)     S(cho)   S(metal)  DE(clash)   DE(tors)     intcor
     42.53     -43.47       0.00       0.00       0.00       2.96       1.12       4.26

> <Gold.PLP.Fitness>
42.5348

> <Gold.PLP.PLP>
-43.4719

> <Gold.PLP.part.hbond>
0.0000

> <Gold.PLP.part.metal>
0.0000

> <Gold.PLP.part.buried>
3.9903

> <Gold.PLP.part.nonpolar>
-48.1636

> <Gold.PLP.part.repulsive>
0.1311

> <Gold.PLP.ligand.clash>
2.9563

> <Gold.PLP.ligand.torsion>
1.1200

> <Gold.PLP.Chemscore.Hbond>
0.0000

> <Gold.PLP.Chemscore.CHOScore>
0.0000

> <Gold.PLP.Chemscore.Metal>
0.0000

> <Gold.PLP.Chemscore.Internal.Correction>
4.2593

