#       Name:                EN300-68237_i001
#       Creating user name   aseyller
#       Creation time:       Fri Apr 21 18:36:29 2023


#       File generated by GOLD software.
#

@<TRIPOS>MOLECULE
EN300-68237_i001|benzaldehydes|mol2|585|dock2
    32    33     1
SMALL
USER_CHARGES


@<TRIPOS>ATOM
      1 Cl1         24.8470  36.8203  41.3845 Cl             1 <1>                0.0000
      2 C2          26.4839  36.5145  40.8938 C.ar           1 <1>                0.0000
      3 C3          27.5208  36.7057  41.7900 C.ar           1 <1>                0.0000
      4 C4          28.8239  36.4626  41.4022 C.ar           1 <1>                0.0000
      5 C5          29.0931  36.0262  40.1117 C.ar           1 <1>                0.0000
      6 N6          30.4128  35.7787  39.7164 N.am           1 <1>                0.0000
      7 C7          30.6952  34.7145  38.9390 C.2            1 <1>                0.0000
      8 O8          29.7965  34.0264  38.5032 O.2            1 <1>                0.0000
      9 C9          32.1276  34.3796  38.6113 C.3            1 <1>                0.0000
     10 O10         32.3591  34.5907  37.2171 O.3            1 <1>                0.0000
     11 C11         32.0772  35.8233  36.7257 C.ar           1 <1>                0.0000
     12 C12         32.1642  36.9366  37.5546 C.ar           1 <1>                0.0000
     13 C13         31.8799  38.1846  37.0629 C.ar           1 <1>                0.0000
     14 C14         31.5017  38.3371  35.7232 C.ar           1 <1>                0.0000
     15 C15         31.1965  39.6714  35.1910 C.2            1 <1>                0.0000
     16 O16         30.5908  40.4718  35.8719 O.2            1 <1>                0.0000
     17 C17         31.4161  37.2129  34.8925 C.ar           1 <1>                0.0000
     18 C18         31.7075  35.9700  35.3929 C.ar           1 <1>                0.0000
     19 C19         28.0508  35.8351  39.2144 C.ar           1 <1>                0.0000
     20 C20         26.7490  36.0744  39.6088 C.ar           1 <1>                0.0000
     21 H21         27.3109  37.0455  42.7934 H              1 <1>                0.0000
     22 H22         29.6328  36.6123  42.1019 H              1 <1>                0.0000
     23 H23         32.7923  35.0201  39.1911 H              1 <1>                0.0000
     24 H24         32.3222  33.3359  38.8580 H              1 <1>                0.0000
     25 H25         32.4560  36.8179  38.5877 H              1 <1>                0.0000
     26 H26         31.9470  39.0483  37.7077 H              1 <1>                0.0000
     27 H27         31.5114  39.9399  34.1936 H              1 <1>                0.0000
     28 H28         31.1249  37.3251  33.8586 H              1 <1>                0.0000
     29 H29         31.6418  35.1023  34.7531 H              1 <1>                0.0000
     30 H30         28.2575  35.4957  38.2101 H              1 <1>                0.0000
     31 H31         25.9380  35.9261  38.9112 H              1 <1>                0.0000
     32 H32         31.1242  36.3731  40.0019 H              1 <1>                0.0000
@<TRIPOS>BOND
    1    1    2 1     
    2    2    3 ar    
    3    2   20 ar    
    4    3    4 ar    
    5    3   21 1     
    6    4    5 ar    
    7    4   22 1     
    8    5    6 1     
    9    5   19 ar    
   10    6    7 am    
   11    6   32 1     
   12    7    8 2     
   13    7    9 1     
   14    9   10 1     
   15    9   23 1     
   16    9   24 1     
   17   10   11 1     
   18   11   12 ar    
   19   11   18 ar    
   20   12   13 ar    
   21   12   25 1     
   22   13   14 ar    
   23   13   26 1     
   24   14   15 1     
   25   14   17 ar    
   26   15   16 2     
   27   15   27 1     
   28   17   18 ar    
   29   17   28 1     
   30   18   29 1     
   31   19   20 ar    
   32   19   30 1     
   33   20   31 1     
@<TRIPOS>SUBSTRUCTURE
      1 ****           1
@<TRIPOS>SET
DONOR_HYDROGENS      STATIC     ATOMS    <user>   **** ""
1 32
ATOM$RED        STATIC     ATOMS    COLORGROUP SYSTEM
1 32
@<TRIPOS>COMMENT
> <Gold.Version>
2022.2.0

> <Gold.Id.Protein>
1qkm|1qkm_protein|mol2

> <Gold.Protein.RotatedTorsions>
[  496  491  490  487 ] final  112.95 input  -89.99 | X-H torsion

> <Gold.Protein.ActiveResidues>
 MET295  LEU298  THR299  LEU301  ALA302  GLU305  TRP335  MET336  LEU339  MET340 
 GLY342  LEU343  ARG346  PHE356  ILE373  ILE376  PHE377  LEU380  LYS471  GLY472 
 MET473  HIS475  LEU476  LEU477  ASN478  MET479  VAL484  VAL487 

> <Gold.Protein.RotatedAtoms>
   37.0241   32.9399   41.7199 H   0  0  0  0  0  0  0  0  0  0  0  0  # atno 496  bound_to 491 

> <Gold.Score>
     Score     S(PLP)   S(hbond)     S(cho)   S(metal)  DE(clash)   DE(tors)     intcor
     52.05     -54.72       0.00       0.00       0.00       4.88       1.04       4.29

> <Gold.PLP.Fitness>
52.0488

> <Gold.PLP.PLP>
-54.7186

> <Gold.PLP.part.hbond>
-1.0000

> <Gold.PLP.part.metal>
0.0000

> <Gold.PLP.part.buried>
-0.0816

> <Gold.PLP.part.nonpolar>
-54.6024

> <Gold.PLP.part.repulsive>
0.1017

> <Gold.PLP.ligand.clash>
4.8790

> <Gold.PLP.ligand.torsion>
1.0395

> <Gold.PLP.Chemscore.Hbond>
0.0000

> <Gold.PLP.Chemscore.CHOScore>
0.0000

> <Gold.PLP.Chemscore.Metal>
0.0000

> <Gold.PLP.Chemscore.Internal.Correction>
4.2881

