#       Name:                EN300-68237_i001
#       Creating user name   aseyller
#       Creation time:       Fri Apr 21 18:36:44 2023


#       File generated by GOLD software.
#

@<TRIPOS>MOLECULE
EN300-68237_i001|benzaldehydes|mol2|585|dock13
    32    33     1
SMALL
USER_CHARGES


@<TRIPOS>ATOM
      1 Cl1         24.8573  37.9165  42.4204 Cl             1 <1>                0.0000
      2 C2          26.2745  37.1079  41.8276 C.ar           1 <1>                0.0000
      3 C3          26.1535  36.1101  40.8765 C.ar           1 <1>                0.0000
      4 C4          27.2794  35.4657  40.4029 C.ar           1 <1>                0.0000
      5 C5          28.5338  35.8198  40.8820 C.ar           1 <1>                0.0000
      6 N6          29.6766  35.1685  40.4033 N.am           1 <1>                0.0000
      7 C7          29.7782  34.8595  39.0954 C.2            1 <1>                0.0000
      8 O8          28.9248  35.2295  38.3169 O.2            1 <1>                0.0000
      9 C9          30.9519  34.0543  38.6002 C.3            1 <1>                0.0000
     10 O10         32.1108  34.8883  38.5414 O.3            1 <1>                0.0000
     11 C11         32.2538  35.6674  37.4402 C.ar           1 <1>                0.0000
     12 C12         33.5233  36.0568  37.0267 C.ar           1 <1>                0.0000
     13 C13         33.6732  36.8445  35.9144 C.ar           1 <1>                0.0000
     14 C14         32.5452  37.2567  35.1942 C.ar           1 <1>                0.0000
     15 C15         32.6999  38.1000  34.0019 C.2            1 <1>                0.0000
     16 O16         31.8316  38.8923  33.7027 O.2            1 <1>                0.0000
     17 C17         31.2691  36.8614  35.6144 C.ar           1 <1>                0.0000
     18 C18         31.1306  36.0693  36.7251 C.ar           1 <1>                0.0000
     19 C19         28.6525  36.8214  41.8363 C.ar           1 <1>                0.0000
     20 C20         27.5239  37.4665  42.3028 C.ar           1 <1>                0.0000
     21 H21         25.1776  35.8349  40.5045 H              1 <1>                0.0000
     22 H22         27.1845  34.6867  39.6609 H              1 <1>                0.0000
     23 H23         31.1361  33.2238  39.2817 H              1 <1>                0.0000
     24 H24         30.7326  33.6664  37.6055 H              1 <1>                0.0000
     25 H25         34.3926  35.7384  37.5829 H              1 <1>                0.0000
     26 H26         34.6594  37.1470  35.5947 H              1 <1>                0.0000
     27 H27         33.5868  38.0148  33.3916 H              1 <1>                0.0000
     28 H28         30.3961  37.1765  35.0624 H              1 <1>                0.0000
     29 H29         30.1469  35.7639  37.0501 H              1 <1>                0.0000
     30 H30         29.6270  37.0987  42.2106 H              1 <1>                0.0000
     31 H31         27.6157  38.2455  43.0450 H              1 <1>                0.0000
     32 H32         30.3955  34.9395  41.0130 H              1 <1>                0.0000
@<TRIPOS>BOND
    1    1    2 1     
    2    2    3 ar    
    3    2   20 ar    
    4    3    4 ar    
    5    3   21 1     
    6    4    5 ar    
    7    4   22 1     
    8    5    6 1     
    9    5   19 ar    
   10    6    7 am    
   11    6   32 1     
   12    7    8 2     
   13    7    9 1     
   14    9   10 1     
   15    9   23 1     
   16    9   24 1     
   17   10   11 1     
   18   11   12 ar    
   19   11   18 ar    
   20   12   13 ar    
   21   12   25 1     
   22   13   14 ar    
   23   13   26 1     
   24   14   15 1     
   25   14   17 ar    
   26   15   16 2     
   27   15   27 1     
   28   17   18 ar    
   29   17   28 1     
   30   18   29 1     
   31   19   20 ar    
   32   19   30 1     
   33   20   31 1     
@<TRIPOS>SUBSTRUCTURE
      1 ****           1
@<TRIPOS>SET
DONOR_HYDROGENS      STATIC     ATOMS    <user>   **** ""
1 32
ATOM$RED        STATIC     ATOMS    COLORGROUP SYSTEM
1 32
@<TRIPOS>COMMENT
> <Gold.Version>
2022.2.0

> <Gold.Id.Protein>
1qkm|1qkm_protein|mol2

> <Gold.Protein.RotatedTorsions>
[  496  491  490  487 ] final -118.08 input  -89.99 | X-H torsion

> <Gold.Protein.ActiveResidues>
 MET295  LEU298  THR299  LEU301  ALA302  GLU305  TRP335  MET336  LEU339  MET340 
 GLY342  LEU343  ARG346  PHE356  ILE373  ILE376  PHE377  LEU380  LYS471  GLY472 
 MET473  HIS475  LEU476  LEU477  ASN478  MET479  VAL484  VAL487 

> <Gold.Protein.RotatedAtoms>
   37.0100   34.3803   40.8128 H   0  0  0  0  0  0  0  0  0  0  0  0  # atno 496  bound_to 491 

> <Gold.Score>
     Score     S(PLP)   S(hbond)     S(cho)   S(metal)  DE(clash)   DE(tors)     intcor
     42.02     -40.59       1.00       0.00       0.00       3.45       1.18       4.26

> <Gold.PLP.Fitness>
42.0213

> <Gold.PLP.PLP>
-40.5853

> <Gold.PLP.part.hbond>
-1.0000

> <Gold.PLP.part.metal>
0.0000

> <Gold.PLP.part.buried>
11.6279

> <Gold.PLP.part.nonpolar>
-50.8155

> <Gold.PLP.part.repulsive>
0.2908

> <Gold.PLP.ligand.clash>
3.4540

> <Gold.PLP.ligand.torsion>
1.1846

> <Gold.PLP.Chemscore.Hbond>
1.0000

> <Gold.PLP.Chemscore.CHOScore>
0.0000

> <Gold.PLP.Chemscore.Metal>
0.0000

> <Gold.Chemscore.Hbonds>
donor molecule, donor type, donor heavy atom, donor atom, acceptor molecule, acceptor atom, score
      L1  H     6    32       P1   470  1.00

> <Gold.PLP.Chemscore.Internal.Correction>
4.2593

