#       Name:                EN300-68237_i001
#       Creating user name   aseyller
#       Creation time:       Fri Apr 21 18:36:38 2023


#       File generated by GOLD software.
#

@<TRIPOS>MOLECULE
EN300-68237_i001|benzaldehydes|mol2|585|dock9
    32    33     1
SMALL
USER_CHARGES


@<TRIPOS>ATOM
      1 Cl1         24.5616  37.1409  41.4803 Cl             1 <1>                0.0000
      2 C2          26.1932  36.6546  41.1412 C.ar           1 <1>                0.0000
      3 C3          26.5094  36.1085  39.9097 C.ar           1 <1>                0.0000
      4 C4          27.8068  35.7213  39.6373 C.ar           1 <1>                0.0000
      5 C5          28.7944  35.8803  40.6006 C.ar           1 <1>                0.0000
      6 N6          30.1102  35.4891  40.3269 N.am           1 <1>                0.0000
      7 C7          30.6435  35.7219  39.1112 C.2            1 <1>                0.0000
      8 O8          30.0188  36.3545  38.2860 O.2            1 <1>                0.0000
      9 C9          32.0158  35.1963  38.7771 C.3            1 <1>                0.0000
     10 O10         32.0997  34.9420  37.3734 O.3            1 <1>                0.0000
     11 C11         32.1742  36.0215  36.5553 C.ar           1 <1>                0.0000
     12 C12         32.1033  35.8525  35.1767 C.ar           1 <1>                0.0000
     13 C13         32.1785  36.9403  34.3453 C.ar           1 <1>                0.0000
     14 C14         32.3266  38.2232  34.8867 C.ar           1 <1>                0.0000
     15 C15         32.4072  39.3920  34.0010 C.2            1 <1>                0.0000
     16 O16         32.0144  40.4729  34.3862 O.2            1 <1>                0.0000
     17 C17         32.3970  38.3881  36.2756 C.ar           1 <1>                0.0000
     18 C18         32.3156  37.2941  37.0983 C.ar           1 <1>                0.0000
     19 C19         28.4744  36.4286  41.8355 C.ar           1 <1>                0.0000
     20 C20         27.1765  36.8191  42.1010 C.ar           1 <1>                0.0000
     21 H21         25.7410  35.9848  39.1610 H              1 <1>                0.0000
     22 H22         28.0531  35.2949  38.6762 H              1 <1>                0.0000
     23 H23         32.7662  35.9353  39.0580 H              1 <1>                0.0000
     24 H24         32.1938  34.2712  39.3252 H              1 <1>                0.0000
     25 H25         31.9891  34.8626  34.7601 H              1 <1>                0.0000
     26 H26         32.1241  36.8078  33.2748 H              1 <1>                0.0000
     27 H27         32.8162  39.2889  33.0069 H              1 <1>                0.0000
     28 H28         32.5111  39.3753  36.6981 H              1 <1>                0.0000
     29 H29         32.3698  37.4201  38.1696 H              1 <1>                0.0000
     30 H30         29.2406  36.5533  42.5864 H              1 <1>                0.0000
     31 H31         26.9272  37.2455  43.0614 H              1 <1>                0.0000
     32 H32         30.6382  35.0504  41.0122 H              1 <1>                0.0000
@<TRIPOS>BOND
    1    1    2 1     
    2    2    3 ar    
    3    2   20 ar    
    4    3    4 ar    
    5    3   21 1     
    6    4    5 ar    
    7    4   22 1     
    8    5    6 1     
    9    5   19 ar    
   10    6    7 am    
   11    6   32 1     
   12    7    8 2     
   13    7    9 1     
   14    9   10 1     
   15    9   23 1     
   16    9   24 1     
   17   10   11 1     
   18   11   12 ar    
   19   11   18 ar    
   20   12   13 ar    
   21   12   25 1     
   22   13   14 ar    
   23   13   26 1     
   24   14   15 1     
   25   14   17 ar    
   26   15   16 2     
   27   15   27 1     
   28   17   18 ar    
   29   17   28 1     
   30   18   29 1     
   31   19   20 ar    
   32   19   30 1     
   33   20   31 1     
@<TRIPOS>SUBSTRUCTURE
      1 ****           1
@<TRIPOS>SET
DONOR_HYDROGENS      STATIC     ATOMS    <user>   **** ""
1 32
ATOM$RED        STATIC     ATOMS    COLORGROUP SYSTEM
1 32
@<TRIPOS>COMMENT
> <Gold.Version>
2022.2.0

> <Gold.Id.Protein>
1qkm|1qkm_protein|mol2

> <Gold.Protein.RotatedTorsions>
[  496  491  490  487 ] final   46.57 input  -89.99 | X-H torsion

> <Gold.Protein.ActiveResidues>
 MET295  LEU298  THR299  LEU301  ALA302  GLU305  TRP335  MET336  LEU339  MET340 
 GLY342  LEU343  ARG346  PHE356  ILE373  ILE376  PHE377  LEU380  LYS471  GLY472 
 MET473  HIS475  LEU476  LEU477  ASN478  MET479  VAL484  VAL487 

> <Gold.Protein.RotatedAtoms>
   36.4479   33.5038   42.3653 H   0  0  0  0  0  0  0  0  0  0  0  0  # atno 496  bound_to 491 

> <Gold.Score>
     Score     S(PLP)   S(hbond)     S(cho)   S(metal)  DE(clash)   DE(tors)     intcor
     42.89     -42.17       0.99       0.00       0.00       4.60       0.95       4.26

> <Gold.PLP.Fitness>
42.8899

> <Gold.PLP.PLP>
-42.1662

> <Gold.PLP.part.hbond>
-0.8189

> <Gold.PLP.part.metal>
0.0000

> <Gold.PLP.part.buried>
13.5942

> <Gold.PLP.part.nonpolar>
-55.6862

> <Gold.PLP.part.repulsive>
0.2145

> <Gold.PLP.ligand.clash>
4.6021

> <Gold.PLP.ligand.torsion>
0.9548

> <Gold.PLP.Chemscore.Hbond>
0.9920

> <Gold.PLP.Chemscore.CHOScore>
0.0000

> <Gold.PLP.Chemscore.Metal>
0.0000

> <Gold.Chemscore.Hbonds>
donor molecule, donor type, donor heavy atom, donor atom, acceptor molecule, acceptor atom, score
      L1  H     6    32       P1   470  0.99

> <Gold.PLP.Chemscore.Internal.Correction>
4.2593

