#       Name:                EN300-68237_i001
#       Creating user name   aseyller
#       Creation time:       Fri Apr 21 18:36:53 2023


#       File generated by GOLD software.
#

@<TRIPOS>MOLECULE
EN300-68237_i001|benzaldehydes|mol2|585|dock19
    32    33     1
SMALL
USER_CHARGES


@<TRIPOS>ATOM
      1 Cl1         35.5392  36.2339  34.7200 Cl             1 <1>                0.0000
      2 C2          33.9195  36.7071  35.1278 C.ar           1 <1>                0.0000
      3 C3          33.4055  37.8977  34.6450 C.ar           1 <1>                0.0000
      4 C4          32.1171  38.2762  34.9676 C.ar           1 <1>                0.0000
      5 C5          31.3372  37.4608  35.7772 C.ar           1 <1>                0.0000
      6 N6          30.0310  37.8419  36.1053 N.am           1 <1>                0.0000
      7 C7          29.7555  39.1308  36.3868 C.2            1 <1>                0.0000
      8 O8          30.6168  39.9759  36.2633 O.2            1 <1>                0.0000
      9 C9          28.3775  39.5220  36.8551 C.3            1 <1>                0.0000
     10 O10         27.5528  38.3577  36.9338 O.3            1 <1>                0.0000
     11 C11         27.6280  37.6255  38.0733 C.ar           1 <1>                0.0000
     12 C12         28.7936  37.6415  38.8318 C.ar           1 <1>                0.0000
     13 C13         28.8749  36.9028  39.9841 C.ar           1 <1>                0.0000
     14 C14         27.7813  36.1317  40.3971 C.ar           1 <1>                0.0000
     15 C15         27.8626  35.3390  41.6307 C.2            1 <1>                0.0000
     16 O16         28.7868  35.5053  42.3985 O.2            1 <1>                0.0000
     17 C17         26.6097  36.1194  39.6301 C.ar           1 <1>                0.0000
     18 C18         26.5370  36.8657  38.4821 C.ar           1 <1>                0.0000
     19 C19         31.8554  36.2666  36.2604 C.ar           1 <1>                0.0000
     20 C20         33.1427  35.8901  35.9305 C.ar           1 <1>                0.0000
     21 H21         34.0125  38.5316  34.0157 H              1 <1>                0.0000
     22 H22         31.7164  39.2056  34.5909 H              1 <1>                0.0000
     23 H23         28.4463  39.9858  37.8392 H              1 <1>                0.0000
     24 H24         27.9413  40.2293  36.1498 H              1 <1>                0.0000
     25 H25         29.6364  38.2365  38.5124 H              1 <1>                0.0000
     26 H26         29.7808  36.9154  40.5719 H              1 <1>                0.0000
     27 H27         27.0996  34.6082  41.8542 H              1 <1>                0.0000
     28 H28         25.7636  35.5264  39.9442 H              1 <1>                0.0000
     29 H29         25.6340  36.8570  37.8897 H              1 <1>                0.0000
     30 H30         31.2510  35.6307  36.8903 H              1 <1>                0.0000
     31 H31         33.5462  34.9615  36.3061 H              1 <1>                0.0000
     32 H32         29.3239  37.1783  36.1300 H              1 <1>                0.0000
@<TRIPOS>BOND
    1    1    2 1     
    2    2    3 ar    
    3    2   20 ar    
    4    3    4 ar    
    5    3   21 1     
    6    4    5 ar    
    7    4   22 1     
    8    5    6 1     
    9    5   19 ar    
   10    6    7 am    
   11    6   32 1     
   12    7    8 2     
   13    7    9 1     
   14    9   10 1     
   15    9   23 1     
   16    9   24 1     
   17   10   11 1     
   18   11   12 ar    
   19   11   18 ar    
   20   12   13 ar    
   21   12   25 1     
   22   13   14 ar    
   23   13   26 1     
   24   14   15 1     
   25   14   17 ar    
   26   15   16 2     
   27   15   27 1     
   28   17   18 ar    
   29   17   28 1     
   30   18   29 1     
   31   19   20 ar    
   32   19   30 1     
   33   20   31 1     
@<TRIPOS>SUBSTRUCTURE
      1 ****           1
@<TRIPOS>SET
DONOR_HYDROGENS      STATIC     ATOMS    <user>   **** ""
1 32
ATOM$RED        STATIC     ATOMS    COLORGROUP SYSTEM
1 32
@<TRIPOS>COMMENT
> <Gold.Version>
2022.2.0

> <Gold.Id.Protein>
1qkm|1qkm_protein|mol2

> <Gold.Protein.RotatedTorsions>
[  496  491  490  487 ] final -176.18 input  -89.99 | X-H torsion

> <Gold.Protein.ActiveResidues>
 MET295  LEU298  THR299  LEU301  ALA302  GLU305  TRP335  MET336  LEU339  MET340 
 GLY342  LEU343  ARG346  PHE356  ILE373  ILE376  PHE377  LEU380  LYS471  GLY472 
 MET473  HIS475  LEU476  LEU477  ASN478  MET479  VAL484  VAL487 

> <Gold.Protein.RotatedAtoms>
   37.3146   33.5168   40.8375 H   0  0  0  0  0  0  0  0  0  0  0  0  # atno 496  bound_to 491 

> <Gold.Score>
     Score     S(PLP)   S(hbond)     S(cho)   S(metal)  DE(clash)   DE(tors)     intcor
     41.99     -44.32       0.00       0.00       0.00       4.92       0.84       4.25

> <Gold.PLP.Fitness>
41.9892

> <Gold.PLP.PLP>
-44.3250

> <Gold.PLP.part.hbond>
-1.0000

> <Gold.PLP.part.metal>
0.0000

> <Gold.PLP.part.buried>
5.9452

> <Gold.PLP.part.nonpolar>
-50.4780

> <Gold.PLP.part.repulsive>
0.7037

> <Gold.PLP.ligand.clash>
4.9157

> <Gold.PLP.ligand.torsion>
0.8361

> <Gold.PLP.Chemscore.Hbond>
0.0000

> <Gold.PLP.Chemscore.CHOScore>
0.0000

> <Gold.PLP.Chemscore.Metal>
0.0000

> <Gold.PLP.Chemscore.Internal.Correction>
4.2522

