#       Name:                EN300-68237_i001
#       Creating user name   aseyller
#       Creation time:       Fri Apr 21 18:36:34 2023


#       File generated by GOLD software.
#

@<TRIPOS>MOLECULE
EN300-68237_i001|benzaldehydes|mol2|585|dock6
    32    33     1
SMALL
USER_CHARGES


@<TRIPOS>ATOM
      1 Cl1         32.4005  39.9958  33.2399 Cl             1 <1>                0.0000
      2 C2          32.0889  38.9682  34.6040 C.ar           1 <1>                0.0000
      3 C3          32.8136  37.8009  34.7692 C.ar           1 <1>                0.0000
      4 C4          32.5680  36.9820  35.8538 C.ar           1 <1>                0.0000
      5 C5          31.5927  37.3306  36.7789 C.ar           1 <1>                0.0000
      6 N6          31.3421  36.5026  37.8792 N.am           1 <1>                0.0000
      7 C7          31.3426  35.1632  37.7287 C.2            1 <1>                0.0000
      8 O8          31.6538  34.6728  36.6639 O.2            1 <1>                0.0000
      9 C9          30.9566  34.2750  38.8834 C.3            1 <1>                0.0000
     10 O10         30.6608  35.0806  40.0260 O.3            1 <1>                0.0000
     11 C11         29.4013  35.5752  40.1215 C.ar           1 <1>                0.0000
     12 C12         28.6386  35.7558  38.9726 C.ar           1 <1>                0.0000
     13 C13         27.3651  36.2558  39.0636 C.ar           1 <1>                0.0000
     14 C14         26.8325  36.5844  40.3164 C.ar           1 <1>                0.0000
     15 C15         25.4689  37.1198  40.4199 C.2            1 <1>                0.0000
     16 O16         24.9043  37.1377  41.4932 O.2            1 <1>                0.0000
     17 C17         27.6044  36.4002  41.4703 C.ar           1 <1>                0.0000
     18 C18         28.8750  35.8947  41.3686 C.ar           1 <1>                0.0000
     19 C19         30.8670  38.5024  36.6107 C.ar           1 <1>                0.0000
     20 C20         31.1201  39.3207  35.5272 C.ar           1 <1>                0.0000
     21 H21         33.5717  37.5301  34.0493 H              1 <1>                0.0000
     22 H22         33.1335  36.0710  35.9822 H              1 <1>                0.0000
     23 H23         30.0772  33.6902  38.6137 H              1 <1>                0.0000
     24 H24         31.7824  33.6030  39.1166 H              1 <1>                0.0000
     25 H25         29.0503  35.5021  38.0069 H              1 <1>                0.0000
     26 H26         26.7740  36.3963  38.1708 H              1 <1>                0.0000
     27 H27         24.9689  37.4975  39.5404 H              1 <1>                0.0000
     28 H28         27.1983  36.6520  42.4387 H              1 <1>                0.0000
     29 H29         29.4712  35.7523  42.2578 H              1 <1>                0.0000
     30 H30         30.1079  38.7758  37.3287 H              1 <1>                0.0000
     31 H31         30.5558  40.2321  35.3960 H              1 <1>                0.0000
     32 H32         31.1680  36.8927  38.7501 H              1 <1>                0.0000
@<TRIPOS>BOND
    1    1    2 1     
    2    2    3 ar    
    3    2   20 ar    
    4    3    4 ar    
    5    3   21 1     
    6    4    5 ar    
    7    4   22 1     
    8    5    6 1     
    9    5   19 ar    
   10    6    7 am    
   11    6   32 1     
   12    7    8 2     
   13    7    9 1     
   14    9   10 1     
   15    9   23 1     
   16    9   24 1     
   17   10   11 1     
   18   11   12 ar    
   19   11   18 ar    
   20   12   13 ar    
   21   12   25 1     
   22   13   14 ar    
   23   13   26 1     
   24   14   15 1     
   25   14   17 ar    
   26   15   16 2     
   27   15   27 1     
   28   17   18 ar    
   29   17   28 1     
   30   18   29 1     
   31   19   20 ar    
   32   19   30 1     
   33   20   31 1     
@<TRIPOS>SUBSTRUCTURE
      1 ****           1
@<TRIPOS>SET
DONOR_HYDROGENS      STATIC     ATOMS    <user>   **** ""
1 32
ATOM$RED        STATIC     ATOMS    COLORGROUP SYSTEM
1 32
@<TRIPOS>COMMENT
> <Gold.Version>
2022.2.0

> <Gold.Id.Protein>
1qkm|1qkm_protein|mol2

> <Gold.Protein.RotatedTorsions>
[  496  491  490  487 ] final  168.49 input  -89.99 | X-H torsion

> <Gold.Protein.ActiveResidues>
 MET295  LEU298  THR299  LEU301  ALA302  GLU305  TRP335  MET336  LEU339  MET340 
 GLY342  LEU343  ARG346  PHE356  ILE373  ILE376  PHE377  LEU380  LYS471  GLY472 
 MET473  HIS475  LEU476  LEU477  ASN478  MET479  VAL484  VAL487 

> <Gold.Protein.RotatedAtoms>
   37.3135   33.3064   40.9755 H   0  0  0  0  0  0  0  0  0  0  0  0  # atno 496  bound_to 491 

> <Gold.Score>
     Score     S(PLP)   S(hbond)     S(cho)   S(metal)  DE(clash)   DE(tors)     intcor
     39.26     -40.37       0.40       0.00       0.00       4.88       0.85       4.29

> <Gold.PLP.Fitness>
39.2557

> <Gold.PLP.PLP>
-40.3687

> <Gold.PLP.part.hbond>
-1.0000

> <Gold.PLP.part.metal>
0.0000

> <Gold.PLP.part.buried>
1.7845

> <Gold.PLP.part.nonpolar>
-47.4724

> <Gold.PLP.part.repulsive>
5.1934

> <Gold.PLP.ligand.clash>
4.8807

> <Gold.PLP.ligand.torsion>
0.8549

> <Gold.PLP.Chemscore.Hbond>
0.3965

> <Gold.PLP.Chemscore.CHOScore>
0.0000

> <Gold.PLP.Chemscore.Metal>
0.0000

> <Gold.Chemscore.Hbonds>
donor molecule, donor type, donor heavy atom, donor atom, acceptor molecule, acceptor atom, score
      P1  H  1258  1270       L1    16  0.40

> <Gold.PLP.Chemscore.Internal.Correction>
4.2881

