#       Name:                plp ligand
#       Creating user name   aseyller
#       Creation time:       Fri Apr 21 18:36:26 2023


#       File generated by GOLD software.
#

@<TRIPOS>MOLECULE
plp ligand
    32    33     1
SMALL
USER_CHARGES


@<TRIPOS>ATOM
      1 Cl1         -7.7862  -0.5877   0.0600 NONPOLAR       1 <1>                0.0000
      2 C2          -6.1097  -0.1375   0.0561 NONPOLAR       1 <1>                0.0000
      3 C3          -5.1608  -1.0031   0.5713 NONPOLAR       1 <1>                0.0000
      4 C4          -3.8263  -0.6475   0.5689 NONPOLAR       1 <1>                0.0000
      5 C5          -3.4369   0.5799   0.0490 NONPOLAR       1 <1>                0.0000
      6 N6          -2.0850   0.9425   0.0450 DONOR          1 <1>                0.0000
      7 C7          -1.1349  -0.0000  -0.1144 NONPOLAR       1 <1>                0.0000
      8 O8          -1.4519  -1.1469  -0.3498 ACCEPTOR       1 <1>                0.0000
      9 C9           0.3213   0.3710  -0.0002 NONPOLAR       1 <1>                0.0000
     10 O10          1.1266  -0.7912  -0.2071 ACCEPTOR       1 <1>                0.0000
     11 C11          2.4716  -0.6290  -0.1372 NONPOLAR       1 <1>                0.0000
     12 C12          3.3121  -1.7202  -0.3291 NONPOLAR       1 <1>                0.0000
     13 C13          4.6723  -1.5617  -0.2591 NONPOLAR       1 <1>                0.0000
     14 C14          5.2148  -0.2981   0.0058 NONPOLAR       1 <1>                0.0000
     15 C15          6.6708  -0.1224   0.0814 NONPOLAR       1 <1>                0.0000
     16 O16          7.1384   0.9730   0.3109 ACCEPTOR       1 <1>                0.0000
     17 C17          4.3640   0.7976   0.1977 NONPOLAR       1 <1>                0.0000
     18 C18          3.0053   0.6292   0.1205 NONPOLAR       1 <1>                0.0000
     19 C19         -4.3910   1.4466  -0.4674 NONPOLAR       1 <1>                0.0000
     20 C20         -5.7237   1.0840  -0.4675 NONPOLAR       1 <1>                0.0000
     21 H21         -5.4642  -1.9574   0.9758                1 <1>                0.0000
     22 H22         -3.0862  -1.3232   0.9714                1 <1>                0.0000
     23 H23          0.5653   1.1208  -0.7528                1 <1>                0.0000
     24 H24          0.5162   0.7760   0.9928                1 <1>                0.0000
     25 H25          2.8929  -2.6943  -0.5333                1 <1>                0.0000
     26 H26          5.3241  -2.4099  -0.4075                1 <1>                0.0000
     27 H27          7.3253  -0.9685  -0.0673                1 <1>                0.0000
     28 H28          4.7773   1.7741   0.4022                1 <1>                0.0000
     29 H29          2.3483   1.4735   0.2684                1 <1>                0.0000
     30 H30         -4.0908   2.4018  -0.8723                1 <1>                0.0000
     31 H31         -6.4662   1.7578  -0.8689                1 <1>                0.0000
     32 H32         -1.8319   1.8722   0.1570                1 <1>                0.0000
@<TRIPOS>BOND
    1    1    2 1     
    2    2    3 ar    
    3    2   20 ar    
    4    3    4 ar    
    5    3   21 1     
    6    4    5 ar    
    7    4   22 1     
    8    5    6 1     
    9    5   19 ar    
   10    6    7 am    
   11    6   32 1     
   12    7    8 2     
   13    7    9 1     
   14    9   10 1     
   15    9   23 1     
   16    9   24 1     
   17   10   11 1     
   18   11   12 ar    
   19   11   18 ar    
   20   12   13 ar    
   21   12   25 1     
   22   13   14 ar    
   23   13   26 1     
   24   14   15 1     
   25   14   17 ar    
   26   15   16 2     
   27   15   27 1     
   28   17   18 ar    
   29   17   28 1     
   30   18   29 1     
   31   19   20 ar    
   32   19   30 1     
   33   20   31 1     
@<TRIPOS>SUBSTRUCTURE
      1 ****           1
@<TRIPOS>SET
DONOR_HYDROGENS      STATIC     ATOMS    <user>   **** ""
1 32
ATOM$RED        STATIC     ATOMS    COLORGROUP SYSTEM
1 32
