#       Name:                EN300-272107_i002
#       Creating user name   aseyller
#       Creation time:       Fri Apr 21 18:45:43 2023


#       File generated by GOLD software.
#

@<TRIPOS>MOLECULE
EN300-272107_i002|Sulfonylchlorides|mol2|629|dock9
    22    21     1
SMALL
USER_CHARGES


@<TRIPOS>ATOM
      1 C1          29.1533  36.3401  39.9214 C.3            1 <1>                0.0000
      2 C2          29.9074  37.3564  39.0614 C.3            1 <1>                0.0000
      3 C3          29.3843  37.2969  37.6250 C.3            1 <1>                0.0000
      4 C4          27.8962  37.6522  37.6090 C.3            1 <1>                0.0000
      5 N5          30.1233  38.2524  36.7961 N.pl3          1 <1>                0.0000
      6 C6          29.9997  39.6901  37.0486 C.3            1 <1>                0.0000
      7 S7          31.0985  37.7073  35.5737 S.o2           1 <1>                0.0000
      8 O8          30.3682  36.6910  34.9005 O.2            1 <1>                0.0000
      9 O9          31.6060  38.8624  34.9198 O.2            1 <1>                0.0000
     10 Cl10        32.6830  36.7963  36.4339 Cl             1 <1>                0.0000
     11 H11         28.0890  36.5751  39.9122 H              1 <1>                0.0000
     12 H12         29.3077  35.3387  39.5196 H              1 <1>                0.0000
     13 H13         29.5261  36.3825  40.9448 H              1 <1>                0.0000
     14 H14         29.7531  38.3578  39.4632 H              1 <1>                0.0000
     15 H15         30.9718  37.1214  39.0706 H              1 <1>                0.0000
     16 H16         29.5218  36.2904  37.2296 H              1 <1>                0.0000
     17 H17         27.3463  36.9412  38.2257 H              1 <1>                0.0000
     18 H18         27.7587  38.6585  38.0043 H              1 <1>                0.0000
     19 H19         27.5235  37.6097  36.5855 H              1 <1>                0.0000
     20 H20         30.7614  40.0002  37.7640 H              1 <1>                0.0000
     21 H21         30.1347  40.2360  36.1148 H              1 <1>                0.0000
     22 H22         29.0112  39.9040  37.4548 H              1 <1>                0.0000
@<TRIPOS>BOND
    1    1    2 1     
    2    1   11 1     
    3    1   12 1     
    4    1   13 1     
    5    2    3 1     
    6    2   14 1     
    7    2   15 1     
    8    3    4 1     
    9    3    5 1     
   10    3   16 1     
   11    4   17 1     
   12    4   18 1     
   13    4   19 1     
   14    5    6 1     
   15    5    7 1     
   16    6   20 1     
   17    6   21 1     
   18    6   22 1     
   19    7    8 2     
   20    7    9 2     
   21    7   10 1     
@<TRIPOS>SUBSTRUCTURE
      1 ****           1
@<TRIPOS>COMMENT
> <Gold.Version>
2022.2.0

> <Gold.Id.Protein>
1qkm|1qkm_protein|mol2

> <Gold.Protein.RotatedTorsions>
[  496  491  490  487 ] final   23.78 input  -89.99 | X-H torsion

> <Gold.Protein.ActiveResidues>
 MET295  LEU298  THR299  LEU301  ALA302  GLU305  TRP335  MET336  LEU339  MET340 
 GLY342  LEU343  ARG346  PHE356  ILE373  ILE376  PHE377  LEU380  LYS471  GLY472 
 MET473  HIS475  LEU476  LEU477  ASN478  MET479  VAL484  VAL487 

> <Gold.Protein.RotatedAtoms>
   36.3173   33.8529   42.3684 H   0  0  0  0  0  0  0  0  0  0  0  0  # atno 496  bound_to 491 

> <Gold.Score>
     Score     S(PLP)   S(hbond)     S(cho)   S(metal)  DE(clash)   DE(tors)     intcor
     28.39     -28.58       0.00       0.00       0.00       0.00       1.09       1.98

> <Gold.PLP.Fitness>
28.3933

> <Gold.PLP.PLP>
-28.5810

> <Gold.PLP.part.hbond>
0.0000

> <Gold.PLP.part.metal>
0.0000

> <Gold.PLP.part.buried>
-1.0908

> <Gold.PLP.part.nonpolar>
-28.5758

> <Gold.PLP.part.repulsive>
0.1142

> <Gold.PLP.ligand.clash>
0.0000

> <Gold.PLP.ligand.torsion>
1.0852

> <Gold.PLP.Chemscore.Hbond>
0.0000

> <Gold.PLP.Chemscore.CHOScore>
0.0000

> <Gold.PLP.Chemscore.Metal>
0.0000

> <Gold.PLP.Chemscore.Internal.Correction>
1.9827

