#       Name:                EN300-272107_i002
#       Creating user name   aseyller
#       Creation time:       Fri Apr 21 18:45:38 2023


#       File generated by GOLD software.
#

@<TRIPOS>MOLECULE
EN300-272107_i002
    22    21     1
SMALL
USER_CHARGES


@<TRIPOS>ATOM
      1 C1           1.4370   1.6905  -0.6038 C.3            1 <1>                0.0000
      2 C2           1.5580   0.1886  -0.3377 C.3            1 <1>                0.0000
      3 C3           0.2141  -0.4882  -0.6141 C.3            1 <1>                0.0000
      4 C4           0.3669  -2.0037  -0.4692 C.3            1 <1>                0.0000
      5 N5          -0.7828  -0.0041   0.3439 N.pl3          1 <1>                0.0000
      6 C6          -0.5752  -0.2030   1.7805 C.3            1 <1>                0.0000
      7 S7          -2.1443   0.7681  -0.1968 S.o2           1 <1>                0.0000
      8 O8          -2.6034   1.5734   0.8803 O.2            1 <1>                0.0000
      9 O9          -1.8259   1.2925  -1.4785 O.2            1 <1>                0.0000
     10 Cl10        -3.5558  -0.6461  -0.4936 Cl             1 <1>                0.0000
     11 H11          1.1551   1.8537  -1.6439 H              1 <1>                0.0000
     12 H12          0.6751   2.1150   0.0500 H              1 <1>                0.0000
     13 H13          2.3945   2.1727  -0.4068 H              1 <1>                0.0000
     14 H14          2.3199  -0.2359  -0.9915 H              1 <1>                0.0000
     15 H15          1.8399   0.0254   0.7025 H              1 <1>                0.0000
     16 H16         -0.1106  -0.2511  -1.6273 H              1 <1>                0.0000
     17 H17          1.1086  -2.3639  -1.1820 H              1 <1>                0.0000
     18 H18          0.6915  -2.2408   0.5439 H              1 <1>                0.0000
     19 H19         -0.5906  -2.4859  -0.6662 H              1 <1>                0.0000
     20 H20         -0.0338   0.6494   2.1909 H              1 <1>                0.0000
     21 H21         -1.5408  -0.2938   2.2780 H              1 <1>                0.0000
     22 H22          0.0034  -1.1126   1.9415 H              1 <1>                0.0000
@<TRIPOS>BOND
    1    1    2 1     
    2    1   11 1     
    3    1   12 1     
    4    1   13 1     
    5    2    3 1     
    6    2   14 1     
    7    2   15 1     
    8    3    4 1     
    9    3    5 1     
   10    3   16 1     
   11    4   17 1     
   12    4   18 1     
   13    4   19 1     
   14    5    6 1     
   15    5    7 1     
   16    6   20 1     
   17    6   21 1     
   18    6   22 1     
   19    7    8 2     
   20    7    9 2     
   21    7   10 1     
@<TRIPOS>SUBSTRUCTURE
      1 ****           1
