#       Name:                EN300-272107_i002
#       Creating user name   aseyller
#       Creation time:       Fri Apr 21 18:45:42 2023


#       File generated by GOLD software.
#

@<TRIPOS>MOLECULE
EN300-272107_i002|Sulfonylchlorides|mol2|629|dock8
    22    21     1
SMALL
USER_CHARGES


@<TRIPOS>ATOM
      1 C1          26.3684  36.6933  39.2114 C.3            1 <1>                0.0000
      2 C2          27.6024  36.7045  38.3069 C.3            1 <1>                0.0000
      3 C3          28.8444  37.0202  39.1427 C.3            1 <1>                0.0000
      4 C4          28.8158  36.1946  40.4306 C.3            1 <1>                0.0000
      5 N5          30.0471  36.6867  38.3755 N.pl3          1 <1>                0.0000
      6 C6          30.9026  35.5761  38.8007 C.3            1 <1>                0.0000
      7 S7          30.4394  37.5650  37.0276 S.o2           1 <1>                0.0000
      8 O8          31.8556  37.6814  37.0226 O.2            1 <1>                0.0000
      9 O9          29.7023  37.0001  35.9520 O.2            1 <1>                0.0000
     10 Cl10        29.7147  39.4310  37.2979 Cl             1 <1>                0.0000
     11 H11         26.4902  35.9328  39.9828 H              1 <1>                0.0000
     12 H12         26.2524  37.6706  39.6799 H              1 <1>                0.0000
     13 H13         25.4835  36.4684  38.6159 H              1 <1>                0.0000
     14 H14         27.7184  35.7273  37.8384 H              1 <1>                0.0000
     15 H15         27.4806  37.4650  37.5356 H              1 <1>                0.0000
     16 H16         28.8549  38.0814  39.3916 H              1 <1>                0.0000
     17 H17         27.9210  36.4427  41.0014 H              1 <1>                0.0000
     18 H18         28.8054  35.1335  40.1817 H              1 <1>                0.0000
     19 H19         29.7007  36.4195  41.0260 H              1 <1>                0.0000
     20 H20         30.5653  34.6549  38.3255 H              1 <1>                0.0000
     21 H21         31.9331  35.7790  38.5092 H              1 <1>                0.0000
     22 H22         30.8460  35.4679  39.8839 H              1 <1>                0.0000
@<TRIPOS>BOND
    1    1    2 1     
    2    1   11 1     
    3    1   12 1     
    4    1   13 1     
    5    2    3 1     
    6    2   14 1     
    7    2   15 1     
    8    3    4 1     
    9    3    5 1     
   10    3   16 1     
   11    4   17 1     
   12    4   18 1     
   13    4   19 1     
   14    5    6 1     
   15    5    7 1     
   16    6   20 1     
   17    6   21 1     
   18    6   22 1     
   19    7    8 2     
   20    7    9 2     
   21    7   10 1     
@<TRIPOS>SUBSTRUCTURE
      1 ****           1
@<TRIPOS>COMMENT
> <Gold.Version>
2022.2.0

> <Gold.Id.Protein>
1qkm|1qkm_protein|mol2

> <Gold.Protein.RotatedTorsions>
[  496  491  490  487 ] final  -26.31 input  -89.99 | X-H torsion

> <Gold.Protein.ActiveResidues>
 MET295  LEU298  THR299  LEU301  ALA302  GLU305  TRP335  MET336  LEU339  MET340 
 GLY342  LEU343  ARG346  PHE356  ILE373  ILE376  PHE377  LEU380  LYS471  GLY472 
 MET473  HIS475  LEU476  LEU477  ASN478  MET479  VAL484  VAL487 

> <Gold.Protein.RotatedAtoms>
   36.3006   34.5362   41.9557 H   0  0  0  0  0  0  0  0  0  0  0  0  # atno 496  bound_to 491 

> <Gold.Score>
     Score     S(PLP)   S(hbond)     S(cho)   S(metal)  DE(clash)   DE(tors)     intcor
     30.73     -32.69       0.00       0.00       0.00       1.12       1.42       2.00

> <Gold.PLP.Fitness>
30.7343

> <Gold.PLP.PLP>
-32.6914

> <Gold.PLP.part.hbond>
0.0000

> <Gold.PLP.part.metal>
0.0000

> <Gold.PLP.part.buried>
-1.8916

> <Gold.PLP.part.nonpolar>
-31.1380

> <Gold.PLP.part.repulsive>
0.0032

> <Gold.PLP.ligand.clash>
1.1177

> <Gold.PLP.ligand.torsion>
1.4209

> <Gold.PLP.Chemscore.Hbond>
0.0000

> <Gold.PLP.Chemscore.CHOScore>
0.0000

> <Gold.PLP.Chemscore.Metal>
0.0000

> <Gold.PLP.Chemscore.Internal.Correction>
2.0024

