#       Name:                EN300-272107_i002
#       Creating user name   aseyller
#       Creation time:       Fri Apr 21 18:45:41 2023


#       File generated by GOLD software.
#

@<TRIPOS>MOLECULE
EN300-272107_i002|Sulfonylchlorides|mol2|629|dock6
    22    21     1
SMALL
USER_CHARGES


@<TRIPOS>ATOM
      1 C1          28.9978  36.7045  41.1051 C.3            1 <1>                0.0000
      2 C2          29.0985  36.0216  39.7396 C.3            1 <1>                0.0000
      3 C3          30.2018  36.6885  38.9160 C.3            1 <1>                0.0000
      4 C4          31.1490  35.6179  38.3704 C.3            1 <1>                0.0000
      5 N5          29.6016  37.4239  37.8002 N.pl3          1 <1>                0.0000
      6 C6          28.1642  37.7067  37.7981 C.3            1 <1>                0.0000
      7 S7          30.5479  37.9356  36.5412 S.o2           1 <1>                0.0000
      8 O8          31.8906  37.8913  37.0045 O.2            1 <1>                0.0000
      9 O9          30.0993  37.2328  35.3905 O.2            1 <1>                0.0000
     10 Cl10        30.1182  39.8836  36.2235 Cl             1 <1>                0.0000
     11 H11         29.9491  36.6113  41.6290 H              1 <1>                0.0000
     12 H12         28.7608  37.7594  40.9671 H              1 <1>                0.0000
     13 H13         28.2116  36.2293  41.6919 H              1 <1>                0.0000
     14 H14         29.3354  34.9666  39.8776 H              1 <1>                0.0000
     15 H15         28.1472  36.1147  39.2157 H              1 <1>                0.0000
     16 H16         30.7600  37.3793  39.5481 H              1 <1>                0.0000
     17 H17         31.5956  35.0708  39.2006 H              1 <1>                0.0000
     18 H18         30.5910  34.9272  37.7383 H              1 <1>                0.0000
     19 H19         31.9351  36.0931  37.7836 H              1 <1>                0.0000
     20 H20         27.9813  38.6630  38.2882 H              1 <1>                0.0000
     21 H21         27.8040  37.7505  36.7702 H              1 <1>                0.0000
     22 H22         27.6377  36.9171  38.3342 H              1 <1>                0.0000
@<TRIPOS>BOND
    1    1    2 1     
    2    1   11 1     
    3    1   12 1     
    4    1   13 1     
    5    2    3 1     
    6    2   14 1     
    7    2   15 1     
    8    3    4 1     
    9    3    5 1     
   10    3   16 1     
   11    4   17 1     
   12    4   18 1     
   13    4   19 1     
   14    5    6 1     
   15    5    7 1     
   16    6   20 1     
   17    6   21 1     
   18    6   22 1     
   19    7    8 2     
   20    7    9 2     
   21    7   10 1     
@<TRIPOS>SUBSTRUCTURE
      1 ****           1
@<TRIPOS>COMMENT
> <Gold.Version>
2022.2.0

> <Gold.Id.Protein>
1qkm|1qkm_protein|mol2

> <Gold.Protein.RotatedTorsions>
[  496  491  490  487 ] final  -82.93 input  -89.99 | X-H torsion

> <Gold.Protein.ActiveResidues>
 MET295  LEU298  THR299  LEU301  ALA302  GLU305  TRP335  MET336  LEU339  MET340 
 GLY342  LEU343  ARG346  PHE356  ILE373  ILE376  PHE377  LEU380  LYS471  GLY472 
 MET473  HIS475  LEU476  LEU477  ASN478  MET479  VAL484  VAL487 

> <Gold.Protein.RotatedAtoms>
   36.6925   34.6934   41.1670 H   0  0  0  0  0  0  0  0  0  0  0  0  # atno 496  bound_to 491 

> <Gold.Score>
     Score     S(PLP)   S(hbond)     S(cho)   S(metal)  DE(clash)   DE(tors)     intcor
     28.70     -31.58       0.00       0.00       0.00       0.53       2.18       2.01

> <Gold.PLP.Fitness>
28.6984

> <Gold.PLP.PLP>
-31.5761

> <Gold.PLP.part.hbond>
0.0000

> <Gold.PLP.part.metal>
0.0000

> <Gold.PLP.part.buried>
-1.0127

> <Gold.PLP.part.nonpolar>
-30.6074

> <Gold.PLP.part.repulsive>
0.0319

> <Gold.PLP.ligand.clash>
0.5299

> <Gold.PLP.ligand.torsion>
2.1781

> <Gold.PLP.Chemscore.Hbond>
0.0000

> <Gold.PLP.Chemscore.CHOScore>
0.0000

> <Gold.PLP.Chemscore.Metal>
0.0000

> <Gold.PLP.Chemscore.Internal.Correction>
2.0083

