#       Name:                EN300-272107_i002
#       Creating user name   aseyller
#       Creation time:       Fri Apr 21 18:45:41 2023


#       File generated by GOLD software.
#

@<TRIPOS>MOLECULE
EN300-272107_i002|Sulfonylchlorides|mol2|629|dock5
    22    21     1
SMALL
USER_CHARGES


@<TRIPOS>ATOM
      1 C1          28.7236  36.3776  41.8368 C.3            1 <1>                0.0000
      2 C2          28.1913  36.4304  40.4033 C.3            1 <1>                0.0000
      3 C3          29.3651  36.4082  39.4223 C.3            1 <1>                0.0000
      4 C4          29.7333  34.9585  39.1002 C.3            1 <1>                0.0000
      5 N5          28.9841  37.1007  38.1889 N.pl3          1 <1>                0.0000
      6 C6          27.5701  37.3420  37.8912 C.3            1 <1>                0.0000
      7 S7          30.1516  37.6110  37.1312 S.o2           1 <1>                0.0000
      8 O8          31.4010  37.3466  37.7544 O.2            1 <1>                0.0000
      9 O9          29.7934  37.0927  35.8574 O.2            1 <1>                0.0000
     10 Cl10        29.9968  39.6203  36.9935 Cl             1 <1>                0.0000
     11 H11         29.2976  35.4618  41.9778 H              1 <1>                0.0000
     12 H12         29.3650  37.2401  42.0181 H              1 <1>                0.0000
     13 H13         27.8872  36.3935  42.5357 H              1 <1>                0.0000
     14 H14         27.5499  35.5680  40.2219 H              1 <1>                0.0000
     15 H15         27.6172  37.3462  40.2623 H              1 <1>                0.0000
     16 H16         30.2228  36.9099  39.8705 H              1 <1>                0.0000
     17 H17         30.0169  34.4432  40.0179 H              1 <1>                0.0000
     18 H18         28.8758  34.4568  38.6520 H              1 <1>                0.0000
     19 H19         30.5697  34.9427  38.4014 H              1 <1>                0.0000
     20 H20         27.2699  38.3034  38.3080 H              1 <1>                0.0000
     21 H21         27.4227  37.3523  36.8113 H              1 <1>                0.0000
     22 H22         26.9655  36.5499  38.3328 H              1 <1>                0.0000
@<TRIPOS>BOND
    1    1    2 1     
    2    1   11 1     
    3    1   12 1     
    4    1   13 1     
    5    2    3 1     
    6    2   14 1     
    7    2   15 1     
    8    3    4 1     
    9    3    5 1     
   10    3   16 1     
   11    4   17 1     
   12    4   18 1     
   13    4   19 1     
   14    5    6 1     
   15    5    7 1     
   16    6   20 1     
   17    6   21 1     
   18    6   22 1     
   19    7    8 2     
   20    7    9 2     
   21    7   10 1     
@<TRIPOS>SUBSTRUCTURE
      1 ****           1
@<TRIPOS>COMMENT
> <Gold.Version>
2022.2.0

> <Gold.Id.Protein>
1qkm|1qkm_protein|mol2

> <Gold.Protein.RotatedTorsions>
[  496  491  490  487 ] final   62.42 input  -89.99 | X-H torsion

> <Gold.Protein.ActiveResidues>
 MET295  LEU298  THR299  LEU301  ALA302  GLU305  TRP335  MET336  LEU339  MET340 
 GLY342  LEU343  ARG346  PHE356  ILE373  ILE376  PHE377  LEU380  LYS471  GLY472 
 MET473  HIS475  LEU476  LEU477  ASN478  MET479  VAL484  VAL487 

> <Gold.Protein.RotatedAtoms>
   36.5717   33.2887   42.2873 H   0  0  0  0  0  0  0  0  0  0  0  0  # atno 496  bound_to 491 

> <Gold.Score>
     Score     S(PLP)   S(hbond)     S(cho)   S(metal)  DE(clash)   DE(tors)     intcor
     30.11     -32.05       0.00       0.00       0.00       0.23       1.86       2.01

> <Gold.PLP.Fitness>
30.1067

> <Gold.PLP.PLP>
-32.0479

> <Gold.PLP.part.hbond>
0.0000

> <Gold.PLP.part.metal>
0.0000

> <Gold.PLP.part.buried>
-1.5787

> <Gold.PLP.part.nonpolar>
-31.6185

> <Gold.PLP.part.repulsive>
0.0116

> <Gold.PLP.ligand.clash>
0.2322

> <Gold.PLP.ligand.torsion>
1.8586

> <Gold.PLP.Chemscore.Hbond>
0.0000

> <Gold.PLP.Chemscore.CHOScore>
0.0000

> <Gold.PLP.Chemscore.Metal>
0.0000

> <Gold.PLP.Chemscore.Internal.Correction>
2.0083

