#       Name:                EN300-272107_i002
#       Creating user name   aseyller
#       Creation time:       Fri Apr 21 18:45:50 2023


#       File generated by GOLD software.
#

@<TRIPOS>MOLECULE
EN300-272107_i002|Sulfonylchlorides|mol2|629|dock20
    22    21     1
SMALL
USER_CHARGES


@<TRIPOS>ATOM
      1 C1          26.3126  37.0843  39.1278 C.3            1 <1>                0.0000
      2 C2          27.5862  36.7024  38.3706 C.3            1 <1>                0.0000
      3 C3          28.8056  36.9770  39.2527 C.3            1 <1>                0.0000
      4 C4          28.7140  36.1342  40.5264 C.3            1 <1>                0.0000
      5 N5          30.0260  36.6265  38.5219 N.pl3          1 <1>                0.0000
      6 C6          30.7077  35.3598  38.7996 C.3            1 <1>                0.0000
      7 S7          30.6348  37.6618  37.3819 S.o2           1 <1>                0.0000
      8 O8          30.0005  38.9149  37.5982 O.2            1 <1>                0.0000
      9 O9          32.0455  37.4918  37.3980 O.2            1 <1>                0.0000
     10 Cl10        30.0017  37.0057  35.5794 Cl             1 <1>                0.0000
     11 H11         26.2414  36.4928  40.0405 H              1 <1>                0.0000
     12 H12         26.3454  38.1435  39.3828 H              1 <1>                0.0000
     13 H13         25.4438  36.8887  38.4993 H              1 <1>                0.0000
     14 H14         27.5534  35.6433  38.1155 H              1 <1>                0.0000
     15 H15         27.6574  37.2939  37.4578 H              1 <1>                0.0000
     16 H16         28.8318  38.0341  39.5177 H              1 <1>                0.0000
     17 H17         27.8061  36.3950  41.0701 H              1 <1>                0.0000
     18 H18         28.6879  35.0772  40.2614 H              1 <1>                0.0000
     19 H19         29.5828  36.3299  41.1548 H              1 <1>                0.0000
     20 H20         30.3112  34.5828  38.1461 H              1 <1>                0.0000
     21 H21         31.7765  35.4754  38.6197 H              1 <1>                0.0000
     22 H22         30.5427  35.0788  39.8398 H              1 <1>                0.0000
@<TRIPOS>BOND
    1    1    2 1     
    2    1   11 1     
    3    1   12 1     
    4    1   13 1     
    5    2    3 1     
    6    2   14 1     
    7    2   15 1     
    8    3    4 1     
    9    3    5 1     
   10    3   16 1     
   11    4   17 1     
   12    4   18 1     
   13    4   19 1     
   14    5    6 1     
   15    5    7 1     
   16    6   20 1     
   17    6   21 1     
   18    6   22 1     
   19    7    8 2     
   20    7    9 2     
   21    7   10 1     
@<TRIPOS>SUBSTRUCTURE
      1 ****           1
@<TRIPOS>COMMENT
> <Gold.Version>
2022.2.0

> <Gold.Id.Protein>
1qkm|1qkm_protein|mol2

> <Gold.Protein.RotatedTorsions>
[  496  491  490  487 ] final  107.89 input  -89.99 | X-H torsion

> <Gold.Protein.ActiveResidues>
 MET295  LEU298  THR299  LEU301  ALA302  GLU305  TRP335  MET336  LEU339  MET340 
 GLY342  LEU343  ARG346  PHE356  ILE373  ILE376  PHE377  LEU380  LYS471  GLY472 
 MET473  HIS475  LEU476  LEU477  ASN478  MET479  VAL484  VAL487 

> <Gold.Protein.RotatedAtoms>
   36.9812   32.9459   41.7912 H   0  0  0  0  0  0  0  0  0  0  0  0  # atno 496  bound_to 491 

> <Gold.Score>
     Score     S(PLP)   S(hbond)     S(cho)   S(metal)  DE(clash)   DE(tors)     intcor
     29.97     -31.06       0.00       0.00       0.00       0.04       1.52       1.98

> <Gold.PLP.Fitness>
29.9741

> <Gold.PLP.PLP>
-31.0648

> <Gold.PLP.part.hbond>
0.0000

> <Gold.PLP.part.metal>
0.0000

> <Gold.PLP.part.buried>
-1.1370

> <Gold.PLP.part.nonpolar>
-29.5145

> <Gold.PLP.part.repulsive>
0.0000

> <Gold.PLP.ligand.clash>
0.0431

> <Gold.PLP.ligand.torsion>
1.5152

> <Gold.PLP.Chemscore.Hbond>
0.0000

> <Gold.PLP.Chemscore.CHOScore>
0.0000

> <Gold.PLP.Chemscore.Metal>
0.0000

> <Gold.PLP.Chemscore.Internal.Correction>
1.9827

