#       Name:                EN300-272107_i002
#       Creating user name   aseyller
#       Creation time:       Fri Apr 21 18:45:43 2023


#       File generated by GOLD software.
#

@<TRIPOS>MOLECULE
EN300-272107_i002|Sulfonylchlorides|mol2|629|dock10
    22    21     1
SMALL
USER_CHARGES


@<TRIPOS>ATOM
      1 C1          30.6961  38.0423  35.2387 C.3            1 <1>                0.0000
      2 C2          29.8469  37.1825  36.1770 C.3            1 <1>                0.0000
      3 C3          29.4782  37.9951  37.4197 C.3            1 <1>                0.0000
      4 C4          28.8018  39.2998  36.9936 C.3            1 <1>                0.0000
      5 N5          28.5591  37.2191  38.2558 N.pl3          1 <1>                0.0000
      6 C6          27.1176  37.4716  38.1891 C.3            1 <1>                0.0000
      7 S7          29.1496  36.0564  39.2764 S.o2           1 <1>                0.0000
      8 O8          28.3256  34.9121  39.1007 O.2            1 <1>                0.0000
      9 O9          30.5581  36.0359  39.0893 O.2            1 <1>                0.0000
     10 Cl10        28.8343  36.7018  41.1644 Cl             1 <1>                0.0000
     11 H11         30.1289  38.9242  34.9410 H              1 <1>                0.0000
     12 H12         31.6057  38.3521  35.7533 H              1 <1>                0.0000
     13 H13         30.9589  37.4633  34.3533 H              1 <1>                0.0000
     14 H14         28.9374  36.8727  35.6624 H              1 <1>                0.0000
     15 H15         30.4141  36.3006  36.4747 H              1 <1>                0.0000
     16 H16         30.3812  38.2223  37.9864 H              1 <1>                0.0000
     17 H17         29.4857  39.8772  36.3715 H              1 <1>                0.0000
     18 H18         27.8989  39.0727  36.4270 H              1 <1>                0.0000
     19 H19         28.5392  39.8789  37.8790 H              1 <1>                0.0000
     20 H20         26.6719  36.8339  37.4257 H              1 <1>                0.0000
     21 H21         26.6650  37.2515  39.1559 H              1 <1>                0.0000
     22 H22         26.9432  38.5174  37.9360 H              1 <1>                0.0000
@<TRIPOS>BOND
    1    1    2 1     
    2    1   11 1     
    3    1   12 1     
    4    1   13 1     
    5    2    3 1     
    6    2   14 1     
    7    2   15 1     
    8    3    4 1     
    9    3    5 1     
   10    3   16 1     
   11    4   17 1     
   12    4   18 1     
   13    4   19 1     
   14    5    6 1     
   15    5    7 1     
   16    6   20 1     
   17    6   21 1     
   18    6   22 1     
   19    7    8 2     
   20    7    9 2     
   21    7   10 1     
@<TRIPOS>SUBSTRUCTURE
      1 ****           1
@<TRIPOS>COMMENT
> <Gold.Version>
2022.2.0

> <Gold.Id.Protein>
1qkm|1qkm_protein|mol2

> <Gold.Protein.RotatedTorsions>
[  496  491  490  487 ] final  153.34 input  -89.99 | X-H torsion

> <Gold.Protein.ActiveResidues>
 MET295  LEU298  THR299  LEU301  ALA302  GLU305  TRP335  MET336  LEU339  MET340 
 GLY342  LEU343  ARG346  PHE356  ILE373  ILE376  PHE377  LEU380  LYS471  GLY472 
 MET473  HIS475  LEU476  LEU477  ASN478  MET479  VAL484  VAL487 

> <Gold.Protein.RotatedAtoms>
   37.2757   33.1357   41.1521 H   0  0  0  0  0  0  0  0  0  0  0  0  # atno 496  bound_to 491 

> <Gold.Score>
     Score     S(PLP)   S(hbond)     S(cho)   S(metal)  DE(clash)   DE(tors)     intcor
     29.95     -31.25       0.00       0.00       0.00       0.00       1.64       1.98

> <Gold.PLP.Fitness>
29.9479

> <Gold.PLP.PLP>
-31.2490

> <Gold.PLP.part.hbond>
0.0000

> <Gold.PLP.part.metal>
0.0000

> <Gold.PLP.part.buried>
-2.3018

> <Gold.PLP.part.nonpolar>
-29.2804

> <Gold.PLP.part.repulsive>
0.1056

> <Gold.PLP.ligand.clash>
0.0000

> <Gold.PLP.ligand.torsion>
1.6419

> <Gold.PLP.Chemscore.Hbond>
0.0000

> <Gold.PLP.Chemscore.CHOScore>
0.0000

> <Gold.PLP.Chemscore.Metal>
0.0000

> <Gold.PLP.Chemscore.Internal.Correction>
1.9827

