#       Name:                EN300-272107_i002
#       Creating user name   aseyller
#       Creation time:       Fri Apr 21 18:45:40 2023


#       File generated by GOLD software.
#

@<TRIPOS>MOLECULE
EN300-272107_i002|Sulfonylchlorides|mol2|629|dock4
    22    21     1
SMALL
USER_CHARGES


@<TRIPOS>ATOM
      1 C1          31.7653  35.7875  38.1664 C.3            1 <1>                0.0000
      2 C2          30.5649  35.6282  39.1018 C.3            1 <1>                0.0000
      3 C3          29.6812  36.8740  39.0142 C.3            1 <1>                0.0000
      4 C4          29.1351  37.0128  37.5916 C.3            1 <1>                0.0000
      5 N5          28.5656  36.7487  39.9554 N.pl3          1 <1>                0.0000
      6 C6          28.8252  36.6976  41.3963 C.3            1 <1>                0.0000
      7 S7          27.0112  36.6649  39.3906 S.o2           1 <1>                0.0000
      8 O8          26.7702  37.8812  38.6966 O.2            1 <1>                0.0000
      9 O9          26.8716  35.3855  38.7881 O.2            1 <1>                0.0000
     10 Cl10        25.7893  36.6742  40.9991 Cl             1 <1>                0.0000
     11 H11         31.4138  35.9124  37.1422 H              1 <1>                0.0000
     12 H12         32.3423  36.6639  38.4619 H              1 <1>                0.0000
     13 H13         32.3949  34.9000  38.2289 H              1 <1>                0.0000
     14 H14         29.9880  34.7519  38.8064 H              1 <1>                0.0000
     15 H15         30.9164  35.5034  40.1260 H              1 <1>                0.0000
     16 H16         30.2707  37.7560  39.2647 H              1 <1>                0.0000
     17 H17         29.9651  37.1061  36.8913 H              1 <1>                0.0000
     18 H18         28.5456  36.1309  37.3411 H              1 <1>                0.0000
     19 H19         28.5055  37.9005  37.5292 H              1 <1>                0.0000
     20 H20         28.8163  37.7088  41.8032 H              1 <1>                0.0000
     21 H21         28.0525  36.1031  41.8838 H              1 <1>                0.0000
     22 H22         29.7997  36.2430  41.5741 H              1 <1>                0.0000
@<TRIPOS>BOND
    1    1    2 1     
    2    1   11 1     
    3    1   12 1     
    4    1   13 1     
    5    2    3 1     
    6    2   14 1     
    7    2   15 1     
    8    3    4 1     
    9    3    5 1     
   10    3   16 1     
   11    4   17 1     
   12    4   18 1     
   13    4   19 1     
   14    5    6 1     
   15    5    7 1     
   16    6   20 1     
   17    6   21 1     
   18    6   22 1     
   19    7    8 2     
   20    7    9 2     
   21    7   10 1     
@<TRIPOS>SUBSTRUCTURE
      1 ****           1
@<TRIPOS>COMMENT
> <Gold.Version>
2022.2.0

> <Gold.Id.Protein>
1qkm|1qkm_protein|mol2

> <Gold.Protein.RotatedTorsions>
[  496  491  490  487 ] final -130.97 input  -89.99 | X-H torsion

> <Gold.Protein.ActiveResidues>
 MET295  LEU298  THR299  LEU301  ALA302  GLU305  TRP335  MET336  LEU339  MET340 
 GLY342  LEU343  ARG346  PHE356  ILE373  ILE376  PHE377  LEU380  LYS471  GLY472 
 MET473  HIS475  LEU476  LEU477  ASN478  MET479  VAL484  VAL487 

> <Gold.Protein.RotatedAtoms>
   37.1119   34.2070   40.7463 H   0  0  0  0  0  0  0  0  0  0  0  0  # atno 496  bound_to 491 

> <Gold.Score>
     Score     S(PLP)   S(hbond)     S(cho)   S(metal)  DE(clash)   DE(tors)     intcor
     32.75     -33.33       0.00       0.00       0.00       0.00       1.30       2.01

> <Gold.PLP.Fitness>
32.7483

> <Gold.PLP.PLP>
-33.3329

> <Gold.PLP.part.hbond>
0.0000

> <Gold.PLP.part.metal>
0.0000

> <Gold.PLP.part.buried>
-0.1368

> <Gold.PLP.part.nonpolar>
-33.2560

> <Gold.PLP.part.repulsive>
0.0554

> <Gold.PLP.ligand.clash>
0.0000

> <Gold.PLP.ligand.torsion>
1.2997

> <Gold.PLP.Chemscore.Hbond>
0.0000

> <Gold.PLP.Chemscore.CHOScore>
0.0000

> <Gold.PLP.Chemscore.Metal>
0.0000

> <Gold.PLP.Chemscore.Internal.Correction>
2.0149

