#       Name:                EN300-272107_i002
#       Creating user name   aseyller
#       Creation time:       Fri Apr 21 18:45:46 2023


#       File generated by GOLD software.
#

@<TRIPOS>MOLECULE
EN300-272107_i002|Sulfonylchlorides|mol2|629|dock14
    22    21     1
SMALL
USER_CHARGES


@<TRIPOS>ATOM
      1 C1          29.0647  36.6941  40.5599 C.3            1 <1>                0.0000
      2 C2          29.4075  35.5399  39.6158 C.3            1 <1>                0.0000
      3 C3          30.8389  35.7085  39.1028 C.3            1 <1>                0.0000
      4 C4          31.3630  34.3613  38.6013 C.3            1 <1>                0.0000
      5 N5          30.8531  36.6774  38.0042 N.pl3          1 <1>                0.0000
      6 C6          29.6475  37.4493  37.6926 C.3            1 <1>                0.0000
      7 S7          32.2319  36.9005  37.1145 S.o2           1 <1>                0.0000
      8 O8          32.1869  38.2365  36.6328 O.2            1 <1>                0.0000
      9 O9          33.3023  36.3928  37.8993 O.2            1 <1>                0.0000
     10 Cl10        32.0967  35.7044  35.4923 Cl             1 <1>                0.0000
     11 H11         29.7556  36.6912  41.4030 H              1 <1>                0.0000
     12 H12         29.1496  37.6394  40.0238 H              1 <1>                0.0000
     13 H13         28.0448  36.5740  40.9253 H              1 <1>                0.0000
     14 H14         29.3226  34.5946  40.1518 H              1 <1>                0.0000
     15 H15         28.7166  35.5427  38.7727 H              1 <1>                0.0000
     16 H16         31.4750  36.0673  39.9120 H              1 <1>                0.0000
     17 H17         31.3525  33.6403  39.4188 H              1 <1>                0.0000
     18 H18         30.7270  34.0025  37.7922 H              1 <1>                0.0000
     19 H19         32.3829  34.4814  38.2359 H              1 <1>                0.0000
     20 H20         29.6503  38.3755  38.2673 H              1 <1>                0.0000
     21 H21         29.6304  37.6824  36.6279 H              1 <1>                0.0000
     22 H22         28.7647  36.8643  37.9507 H              1 <1>                0.0000
@<TRIPOS>BOND
    1    1    2 1     
    2    1   11 1     
    3    1   12 1     
    4    1   13 1     
    5    2    3 1     
    6    2   14 1     
    7    2   15 1     
    8    3    4 1     
    9    3    5 1     
   10    3   16 1     
   11    4   17 1     
   12    4   18 1     
   13    4   19 1     
   14    5    6 1     
   15    5    7 1     
   16    6   20 1     
   17    6   21 1     
   18    6   22 1     
   19    7    8 2     
   20    7    9 2     
   21    7   10 1     
@<TRIPOS>SUBSTRUCTURE
      1 ****           1
@<TRIPOS>COMMENT
> <Gold.Version>
2022.2.0

> <Gold.Id.Protein>
1qkm|1qkm_protein|mol2

> <Gold.Protein.RotatedTorsions>
[  496  491  490  487 ] final -127.71 input  -89.99 | X-H torsion

> <Gold.Protein.ActiveResidues>
 MET295  LEU298  THR299  LEU301  ALA302  GLU305  TRP335  MET336  LEU339  MET340 
 GLY342  LEU343  ARG346  PHE356  ILE373  ILE376  PHE377  LEU380  LYS471  GLY472 
 MET473  HIS475  LEU476  LEU477  ASN478  MET479  VAL484  VAL487 

> <Gold.Protein.RotatedAtoms>
   37.0875   34.2529   40.7593 H   0  0  0  0  0  0  0  0  0  0  0  0  # atno 496  bound_to 491 

> <Gold.Score>
     Score     S(PLP)   S(hbond)     S(cho)   S(metal)  DE(clash)   DE(tors)     intcor
     29.74     -31.47       0.00       0.00       0.00       1.06       1.33       1.98

> <Gold.PLP.Fitness>
29.7357

> <Gold.PLP.PLP>
-31.4651

> <Gold.PLP.part.hbond>
0.0000

> <Gold.PLP.part.metal>
0.0000

> <Gold.PLP.part.buried>
-0.7840

> <Gold.PLP.part.nonpolar>
-30.4050

> <Gold.PLP.part.repulsive>
0.0406

> <Gold.PLP.ligand.clash>
1.0604

> <Gold.PLP.ligand.torsion>
1.3258

> <Gold.PLP.Chemscore.Hbond>
0.0000

> <Gold.PLP.Chemscore.CHOScore>
0.0000

> <Gold.PLP.Chemscore.Metal>
0.0000

> <Gold.PLP.Chemscore.Internal.Correction>
1.9827

