#       Name:                EN300-272107_i002
#       Creating user name   aseyller
#       Creation time:       Fri Apr 21 18:45:49 2023


#       File generated by GOLD software.
#

@<TRIPOS>MOLECULE
EN300-272107_i002|Sulfonylchlorides|mol2|629|dock18
    22    21     1
SMALL
USER_CHARGES


@<TRIPOS>ATOM
      1 C1          29.2006  39.0987  37.2701 C.3            1 <1>                0.0000
      2 C2          29.0836  37.6196  37.6438 C.3            1 <1>                0.0000
      3 C3          30.3429  37.1820  38.3943 C.3            1 <1>                0.0000
      4 C4          29.9824  36.0869  39.4002 C.3            1 <1>                0.0000
      5 N5          31.3253  36.6636  37.4392 N.pl3          1 <1>                0.0000
      6 C6          32.1100  35.4715  37.7700 C.3            1 <1>                0.0000
      7 S7          31.5488  37.4249  35.9857 S.o2           1 <1>                0.0000
      8 O8          30.4926  36.9919  35.1393 O.2            1 <1>                0.0000
      9 O9          31.7958  38.7924  36.2827 O.2            1 <1>                0.0000
     10 Cl10        33.2552  36.6976  35.1859 Cl             1 <1>                0.0000
     11 H11         29.3092  39.6949  38.1762 H              1 <1>                0.0000
     12 H12         30.0726  39.2445  36.6326 H              1 <1>                0.0000
     13 H13         28.3034  39.4105  36.7353 H              1 <1>                0.0000
     14 H14         28.2115  37.4738  38.2812 H              1 <1>                0.0000
     15 H15         28.9750  37.0235  36.7377 H              1 <1>                0.0000
     16 H16         30.7659  38.0361  38.9231 H              1 <1>                0.0000
     17 H17         29.2515  36.4727  40.1108 H              1 <1>                0.0000
     18 H18         29.5594  35.2328  38.8714 H              1 <1>                0.0000
     19 H19         30.8796  35.7752  39.9350 H              1 <1>                0.0000
     20 H20         31.5803  34.5817  37.4295 H              1 <1>                0.0000
     21 H21         33.0807  35.5272  37.2773 H              1 <1>                0.0000
     22 H22         32.2529  35.4185  38.8493 H              1 <1>                0.0000
@<TRIPOS>BOND
    1    1    2 1     
    2    1   11 1     
    3    1   12 1     
    4    1   13 1     
    5    2    3 1     
    6    2   14 1     
    7    2   15 1     
    8    3    4 1     
    9    3    5 1     
   10    3   16 1     
   11    4   17 1     
   12    4   18 1     
   13    4   19 1     
   14    5    6 1     
   15    5    7 1     
   16    6   20 1     
   17    6   21 1     
   18    6   22 1     
   19    7    8 2     
   20    7    9 2     
   21    7   10 1     
@<TRIPOS>SUBSTRUCTURE
      1 ****           1
@<TRIPOS>COMMENT
> <Gold.Version>
2022.2.0

> <Gold.Id.Protein>
1qkm|1qkm_protein|mol2

> <Gold.Protein.RotatedTorsions>
[  496  491  490  487 ] final -178.25 input  -89.99 | X-H torsion

> <Gold.Protein.ActiveResidues>
 MET295  LEU298  THR299  LEU301  ALA302  GLU305  TRP335  MET336  LEU339  MET340 
 GLY342  LEU343  ARG346  PHE356  ILE373  ILE376  PHE377  LEU380  LYS471  GLY472 
 MET473  HIS475  LEU476  LEU477  ASN478  MET479  VAL484  VAL487 

> <Gold.Protein.RotatedAtoms>
   37.3166   33.4868   40.8533 H   0  0  0  0  0  0  0  0  0  0  0  0  # atno 496  bound_to 491 

> <Gold.Score>
     Score     S(PLP)   S(hbond)     S(cho)   S(metal)  DE(clash)   DE(tors)     intcor
     28.83     -31.21       0.00       0.00       0.00       0.00       2.18       1.98

> <Gold.PLP.Fitness>
28.8272

> <Gold.PLP.PLP>
-31.2062

> <Gold.PLP.part.hbond>
0.0000

> <Gold.PLP.part.metal>
0.0000

> <Gold.PLP.part.buried>
-2.1332

> <Gold.PLP.part.nonpolar>
-28.8778

> <Gold.PLP.part.repulsive>
0.0576

> <Gold.PLP.ligand.clash>
0.0000

> <Gold.PLP.ligand.torsion>
2.1808

> <Gold.PLP.Chemscore.Hbond>
0.0000

> <Gold.PLP.Chemscore.CHOScore>
0.0000

> <Gold.PLP.Chemscore.Metal>
0.0000

> <Gold.PLP.Chemscore.Internal.Correction>
1.9827

