#       Name:                EN300-272107_i002
#       Creating user name   aseyller
#       Creation time:       Fri Apr 21 18:45:40 2023


#       File generated by GOLD software.
#

@<TRIPOS>MOLECULE
EN300-272107_i002|Sulfonylchlorides|mol2|629|dock3
    22    21     1
SMALL
USER_CHARGES


@<TRIPOS>ATOM
      1 C1          28.6527  36.6870  40.2936 C.3            1 <1>                0.0000
      2 C2          30.0013  36.4897  39.5983 C.3            1 <1>                0.0000
      3 C3          29.8492  36.7683  38.1017 C.3            1 <1>                0.0000
      4 C4          29.2289  38.1525  37.9011 C.3            1 <1>                0.0000
      5 N5          31.1658  36.7257  37.4607 N.pl3          1 <1>                0.0000
      6 C6          32.2846  36.0566  38.1290 C.3            1 <1>                0.0000
      7 S7          31.3893  37.4336  35.9804 S.o2           1 <1>                0.0000
      8 O8          30.3031  37.0132  35.1664 O.2            1 <1>                0.0000
      9 O9          31.6899  38.7999  36.2303 O.2            1 <1>                0.0000
     10 Cl10        33.0539  36.6215  35.1744 Cl             1 <1>                0.0000
     11 H11         28.3153  37.7131  40.1474 H              1 <1>                0.0000
     12 H12         27.9210  35.9999  39.8686 H              1 <1>                0.0000
     13 H13         28.7611  36.4884  41.3598 H              1 <1>                0.0000
     14 H14         30.7331  37.1767  40.0233 H              1 <1>                0.0000
     15 H15         30.3388  35.4636  39.7445 H              1 <1>                0.0000
     16 H16         29.2031  36.0124  37.6553 H              1 <1>                0.0000
     17 H17         28.2493  38.1841  38.3780 H              1 <1>                0.0000
     18 H18         29.8750  38.9083  38.3475 H              1 <1>                0.0000
     19 H19         29.1204  38.3509  36.8348 H              1 <1>                0.0000
     20 H20         32.3093  35.0075  37.8342 H              1 <1>                0.0000
     21 H21         33.2197  36.5370  37.8409 H              1 <1>                0.0000
     22 H22         32.1575  36.1275  39.2093 H              1 <1>                0.0000
@<TRIPOS>BOND
    1    1    2 1     
    2    1   11 1     
    3    1   12 1     
    4    1   13 1     
    5    2    3 1     
    6    2   14 1     
    7    2   15 1     
    8    3    4 1     
    9    3    5 1     
   10    3   16 1     
   11    4   17 1     
   12    4   18 1     
   13    4   19 1     
   14    5    6 1     
   15    5    7 1     
   16    6   20 1     
   17    6   21 1     
   18    6   22 1     
   19    7    8 2     
   20    7    9 2     
   21    7   10 1     
@<TRIPOS>SUBSTRUCTURE
      1 ****           1
@<TRIPOS>COMMENT
> <Gold.Version>
2022.2.0

> <Gold.Id.Protein>
1qkm|1qkm_protein|mol2

> <Gold.Protein.RotatedTorsions>
[  496  491  490  487 ] final  133.81 input  -89.99 | X-H torsion

> <Gold.Protein.ActiveResidues>
 MET295  LEU298  THR299  LEU301  ALA302  GLU305  TRP335  MET336  LEU339  MET340 
 GLY342  LEU343  ARG346  PHE356  ILE373  ILE376  PHE377  LEU380  LYS471  GLY472 
 MET473  HIS475  LEU476  LEU477  ASN478  MET479  VAL484  VAL487 

> <Gold.Protein.RotatedAtoms>
   37.1777   32.9887   41.4190 H   0  0  0  0  0  0  0  0  0  0  0  0  # atno 496  bound_to 491 

> <Gold.Score>
     Score     S(PLP)   S(hbond)     S(cho)   S(metal)  DE(clash)   DE(tors)     intcor
     28.78     -30.33       0.00       0.00       0.00       0.02       1.77       2.01

> <Gold.PLP.Fitness>
28.7841

> <Gold.PLP.PLP>
-30.3347

> <Gold.PLP.part.hbond>
0.0000

> <Gold.PLP.part.metal>
0.0000

> <Gold.PLP.part.buried>
-2.3365

> <Gold.PLP.part.nonpolar>
-27.4356

> <Gold.PLP.part.repulsive>
0.0520

> <Gold.PLP.ligand.clash>
0.0179

> <Gold.PLP.ligand.torsion>
1.7738

> <Gold.PLP.Chemscore.Hbond>
0.0000

> <Gold.PLP.Chemscore.CHOScore>
0.0000

> <Gold.PLP.Chemscore.Metal>
0.0000

> <Gold.PLP.Chemscore.Internal.Correction>
2.0149

