#       Name:                EN300-272107_i002
#       Creating user name   aseyller
#       Creation time:       Fri Apr 21 18:45:45 2023


#       File generated by GOLD software.
#

@<TRIPOS>MOLECULE
EN300-272107_i002|Sulfonylchlorides|mol2|629|dock12
    22    21     1
SMALL
USER_CHARGES


@<TRIPOS>ATOM
      1 C1          31.7960  33.3008  38.4989 C.3            1 <1>                0.0000
      2 C2          30.8960  34.5223  38.6965 C.3            1 <1>                0.0000
      3 C3          31.6919  35.7952  38.4018 C.3            1 <1>                0.0000
      4 C4          32.5561  35.5798  37.1577 C.3            1 <1>                0.0000
      5 N5          30.7666  36.9064  38.1671 N.pl3          1 <1>                0.0000
      6 C6          29.7473  37.2345  39.1669 C.3            1 <1>                0.0000
      7 S7          30.8729  37.7919  36.7718 S.o2           1 <1>                0.0000
      8 O8          32.2091  38.2702  36.7008 O.2            1 <1>                0.0000
      9 O9          30.2736  37.0056  35.7510 O.2            1 <1>                0.0000
     10 Cl10        29.6967  39.4176  37.0042 Cl             1 <1>                0.0000
     11 H11         32.1536  33.2757  37.4695 H              1 <1>                0.0000
     12 H12         32.6467  33.3627  39.1776 H              1 <1>                0.0000
     13 H13         31.2290  32.3939  38.7089 H              1 <1>                0.0000
     14 H14         30.0453  34.4603  38.0179 H              1 <1>                0.0000
     15 H15         30.5385  34.5474  39.7259 H              1 <1>                0.0000
     16 H16         32.3319  36.0288  39.2528 H              1 <1>                0.0000
     17 H17         33.2446  34.7530  37.3324 H              1 <1>                0.0000
     18 H18         31.9162  35.3463  36.3069 H              1 <1>                0.0000
     19 H19         33.1232  36.4867  36.9478 H              1 <1>                0.0000
     20 H20         30.1513  37.9596  39.8734 H              1 <1>                0.0000
     21 H21         28.8745  37.6585  38.6704 H              1 <1>                0.0000
     22 H22         29.4576  36.3295  39.7009 H              1 <1>                0.0000
@<TRIPOS>BOND
    1    1    2 1     
    2    1   11 1     
    3    1   12 1     
    4    1   13 1     
    5    2    3 1     
    6    2   14 1     
    7    2   15 1     
    8    3    4 1     
    9    3    5 1     
   10    3   16 1     
   11    4   17 1     
   12    4   18 1     
   13    4   19 1     
   14    5    6 1     
   15    5    7 1     
   16    6   20 1     
   17    6   21 1     
   18    6   22 1     
   19    7    8 2     
   20    7    9 2     
   21    7   10 1     
@<TRIPOS>SUBSTRUCTURE
      1 ****           1
@<TRIPOS>COMMENT
> <Gold.Version>
2022.2.0

> <Gold.Id.Protein>
1qkm|1qkm_protein|mol2

> <Gold.Protein.RotatedTorsions>
[  496  491  490  487 ] final  154.00 input  -89.99 | X-H torsion

> <Gold.Protein.ActiveResidues>
 MET295  LEU298  THR299  LEU301  ALA302  GLU305  TRP335  MET336  LEU339  MET340 
 GLY342  LEU343  ARG346  PHE356  ILE373  ILE376  PHE377  LEU380  LYS471  GLY472 
 MET473  HIS475  LEU476  LEU477  ASN478  MET479  VAL484  VAL487 

> <Gold.Protein.RotatedAtoms>
   37.2781   33.1421   41.1438 H   0  0  0  0  0  0  0  0  0  0  0  0  # atno 496  bound_to 491 

> <Gold.Score>
     Score     S(PLP)   S(hbond)     S(cho)   S(metal)  DE(clash)   DE(tors)     intcor
     32.71     -33.66       0.00       0.00       0.00       0.00       1.47       1.98

> <Gold.PLP.Fitness>
32.7079

> <Gold.PLP.PLP>
-33.6570

> <Gold.PLP.part.hbond>
0.0000

> <Gold.PLP.part.metal>
0.0000

> <Gold.PLP.part.buried>
-1.0675

> <Gold.PLP.part.nonpolar>
-32.2853

> <Gold.PLP.part.repulsive>
0.0249

> <Gold.PLP.ligand.clash>
0.0000

> <Gold.PLP.ligand.torsion>
1.4659

> <Gold.PLP.Chemscore.Hbond>
0.0000

> <Gold.PLP.Chemscore.CHOScore>
0.0000

> <Gold.PLP.Chemscore.Metal>
0.0000

> <Gold.PLP.Chemscore.Internal.Correction>
1.9827

