#       Name:                EN300-272107_i002
#       Creating user name   aseyller
#       Creation time:       Fri Apr 21 18:45:48 2023


#       File generated by GOLD software.
#

@<TRIPOS>MOLECULE
EN300-272107_i002|Sulfonylchlorides|mol2|629|dock17
    22    21     1
SMALL
USER_CHARGES


@<TRIPOS>ATOM
      1 C1          32.1260  36.0699  38.1929 C.3            1 <1>                0.0000
      2 C2          30.6232  35.9484  38.4537 C.3            1 <1>                0.0000
      3 C3          29.9893  37.3407  38.4416 C.3            1 <1>                0.0000
      4 C4          30.3594  38.0584  37.1419 C.3            1 <1>                0.0000
      5 N5          28.5326  37.2150  38.5321 N.pl3          1 <1>                0.0000
      6 C6          27.6744  37.9530  37.6020 C.3            1 <1>                0.0000
      7 S7          27.8559  36.2385  39.6858 S.o2           1 <1>                0.0000
      8 O8          26.5143  36.6781  39.8470 O.2            1 <1>                0.0000
      9 O9          28.1999  34.9051  39.3349 O.2            1 <1>                0.0000
     10 Cl10        28.7981  36.6309  41.4289 Cl             1 <1>                0.0000
     11 H11         32.2896  36.5352  37.2208 H              1 <1>                0.0000
     12 H12         32.5813  36.6832  38.9705 H              1 <1>                0.0000
     13 H13         32.5776  35.0779  38.2015 H              1 <1>                0.0000
     14 H14         30.1680  35.3351  37.6761 H              1 <1>                0.0000
     15 H15         30.4596  35.4831  39.4257 H              1 <1>                0.0000
     16 H16         30.3580  37.9153  39.2914 H              1 <1>                0.0000
     17 H17         31.4433  38.1520  37.0745 H              1 <1>                0.0000
     18 H18         29.9908  37.4840  36.2921 H              1 <1>                0.0000
     19 H19         29.9078  39.0504  37.1333 H              1 <1>                0.0000
     20 H20         27.4893  37.3440  36.7172 H              1 <1>                0.0000
     21 H21         26.7268  38.1850  38.0882 H              1 <1>                0.0000
     22 H22         28.1686  38.8792  37.3087 H              1 <1>                0.0000
@<TRIPOS>BOND
    1    1    2 1     
    2    1   11 1     
    3    1   12 1     
    4    1   13 1     
    5    2    3 1     
    6    2   14 1     
    7    2   15 1     
    8    3    4 1     
    9    3    5 1     
   10    3   16 1     
   11    4   17 1     
   12    4   18 1     
   13    4   19 1     
   14    5    6 1     
   15    5    7 1     
   16    6   20 1     
   17    6   21 1     
   18    6   22 1     
   19    7    8 2     
   20    7    9 2     
   21    7   10 1     
@<TRIPOS>SUBSTRUCTURE
      1 ****           1
@<TRIPOS>COMMENT
> <Gold.Version>
2022.2.0

> <Gold.Id.Protein>
1qkm|1qkm_protein|mol2

> <Gold.Protein.RotatedTorsions>
[  496  491  490  487 ] final -124.77 input  -89.99 | X-H torsion

> <Gold.Protein.ActiveResidues>
 MET295  LEU298  THR299  LEU301  ALA302  GLU305  TRP335  MET336  LEU339  MET340 
 GLY342  LEU343  ARG346  PHE356  ILE373  ILE376  PHE377  LEU380  LYS471  GLY472 
 MET473  HIS475  LEU476  LEU477  ASN478  MET479  VAL484  VAL487 

> <Gold.Protein.RotatedAtoms>
   37.0646   34.2933   40.7734 H   0  0  0  0  0  0  0  0  0  0  0  0  # atno 496  bound_to 491 

> <Gold.Score>
     Score     S(PLP)   S(hbond)     S(cho)   S(metal)  DE(clash)   DE(tors)     intcor
     29.84     -31.48       0.00       0.00       0.00       0.86       1.38       1.98

> <Gold.PLP.Fitness>
29.8431

> <Gold.PLP.PLP>
-31.4833

> <Gold.PLP.part.hbond>
0.0000

> <Gold.PLP.part.metal>
0.0000

> <Gold.PLP.part.buried>
-2.7023

> <Gold.PLP.part.nonpolar>
-28.6319

> <Gold.PLP.part.repulsive>
0.0947

> <Gold.PLP.ligand.clash>
0.8633

> <Gold.PLP.ligand.torsion>
1.3798

> <Gold.PLP.Chemscore.Hbond>
0.0000

> <Gold.PLP.Chemscore.CHOScore>
0.0000

> <Gold.PLP.Chemscore.Metal>
0.0000

> <Gold.PLP.Chemscore.Internal.Correction>
1.9827

