#       Name:                EN300-272107_i002
#       Creating user name   aseyller
#       Creation time:       Fri Apr 21 18:45:47 2023


#       File generated by GOLD software.
#

@<TRIPOS>MOLECULE
EN300-272107_i002|Sulfonylchlorides|mol2|629|dock16
    22    21     1
SMALL
USER_CHARGES


@<TRIPOS>ATOM
      1 C1          28.8031  36.7114  41.4087 C.3            1 <1>                0.0000
      2 C2          29.0368  35.7111  40.2747 C.3            1 <1>                0.0000
      3 C3          30.1693  36.2132  39.3769 C.3            1 <1>                0.0000
      4 C4          30.9284  35.0181  38.7969 C.3            1 <1>                0.0000
      5 N5          29.6088  37.0125  38.2846 N.pl3          1 <1>                0.0000
      6 C6          28.1570  37.1616  38.1563 C.3            1 <1>                0.0000
      7 S7          30.6161  37.7475  37.1950 S.o2           1 <1>                0.0000
      8 O8          30.2503  39.1204  37.1730 O.2            1 <1>                0.0000
      9 O9          31.9300  37.2980  37.4966 O.2            1 <1>                0.0000
     10 Cl10        30.1651  37.0077  35.3702 Cl             1 <1>                0.0000
     11 H11         29.7151  36.8134  41.9969 H              1 <1>                0.0000
     12 H12         28.5315  37.6798  40.9886 H              1 <1>                0.0000
     13 H13         27.9963  36.3536  42.0483 H              1 <1>                0.0000
     14 H14         29.3084  34.7426  40.6948 H              1 <1>                0.0000
     15 H15         28.1249  35.6091  39.6865 H              1 <1>                0.0000
     16 H16         30.8525  36.8278  39.9633 H              1 <1>                0.0000
     17 H17         31.3455  34.4235  39.6096 H              1 <1>                0.0000
     18 H18         30.2453  34.4037  38.2106 H              1 <1>                0.0000
     19 H19         31.7353  35.3759  38.1573 H              1 <1>                0.0000
     20 H20         27.8303  38.0356  38.7198 H              1 <1>                0.0000
     21 H21         27.8963  37.2885  37.1055 H              1 <1>                0.0000
     22 H22         27.6643  36.2717  38.5479 H              1 <1>                0.0000
@<TRIPOS>BOND
    1    1    2 1     
    2    1   11 1     
    3    1   12 1     
    4    1   13 1     
    5    2    3 1     
    6    2   14 1     
    7    2   15 1     
    8    3    4 1     
    9    3    5 1     
   10    3   16 1     
   11    4   17 1     
   12    4   18 1     
   13    4   19 1     
   14    5    6 1     
   15    5    7 1     
   16    6   20 1     
   17    6   21 1     
   18    6   22 1     
   19    7    8 2     
   20    7    9 2     
   21    7   10 1     
@<TRIPOS>SUBSTRUCTURE
      1 ****           1
@<TRIPOS>COMMENT
> <Gold.Version>
2022.2.0

> <Gold.Id.Protein>
1qkm|1qkm_protein|mol2

> <Gold.Protein.RotatedTorsions>
[  496  491  490  487 ] final -170.22 input  -89.99 | X-H torsion

> <Gold.Protein.ActiveResidues>
 MET295  LEU298  THR299  LEU301  ALA302  GLU305  TRP335  MET336  LEU339  MET340 
 GLY342  LEU343  ARG346  PHE356  ILE373  ILE376  PHE377  LEU380  LYS471  GLY472 
 MET473  HIS475  LEU476  LEU477  ASN478  MET479  VAL484  VAL487 

> <Gold.Protein.RotatedAtoms>
   37.3048   33.6057   40.7971 H   0  0  0  0  0  0  0  0  0  0  0  0  # atno 496  bound_to 491 

> <Gold.Score>
     Score     S(PLP)   S(hbond)     S(cho)   S(metal)  DE(clash)   DE(tors)     intcor
     28.90     -31.18       0.00       0.00       0.00       1.30       1.48       1.98

> <Gold.PLP.Fitness>
28.9008

> <Gold.PLP.PLP>
-31.1805

> <Gold.PLP.part.hbond>
0.0000

> <Gold.PLP.part.metal>
0.0000

> <Gold.PLP.part.buried>
-1.8576

> <Gold.PLP.part.nonpolar>
-29.6184

> <Gold.PLP.part.repulsive>
0.0000

> <Gold.PLP.ligand.clash>
1.3003

> <Gold.PLP.ligand.torsion>
1.4810

> <Gold.PLP.Chemscore.Hbond>
0.0000

> <Gold.PLP.Chemscore.CHOScore>
0.0000

> <Gold.PLP.Chemscore.Metal>
0.0000

> <Gold.PLP.Chemscore.Internal.Correction>
1.9827

