#       Name:                EN300-272107_i002
#       Creating user name   aseyller
#       Creation time:       Fri Apr 21 18:45:42 2023


#       File generated by GOLD software.
#

@<TRIPOS>MOLECULE
EN300-272107_i002|Sulfonylchlorides|mol2|629|dock7
    22    21     1
SMALL
USER_CHARGES


@<TRIPOS>ATOM
      1 C1          29.6161  36.1837  39.6901 C.3            1 <1>                0.0000
      2 C2          30.2571  36.7974  38.4437 C.3            1 <1>                0.0000
      3 C3          31.5916  36.1040  38.1626 C.3            1 <1>                0.0000
      4 C4          31.3937  34.5870  38.1890 C.3            1 <1>                0.0000
      5 N5          32.0843  36.5093  36.8439 N.pl3          1 <1>                0.0000
      6 C6          33.3310  35.9437  36.3222 C.3            1 <1>                0.0000
      7 S7          31.2320  37.6065  35.9427 S.o2           1 <1>                0.0000
      8 O8          30.0636  36.9348  35.4924 O.2            1 <1>                0.0000
      9 O9          31.1943  38.8068  36.7025 O.2            1 <1>                0.0000
     10 Cl10        32.3296  38.0085  34.2953 Cl             1 <1>                0.0000
     11 H11         29.4451  35.1200  39.5245 H              1 <1>                0.0000
     12 H12         30.2813  36.3162  40.5434 H              1 <1>                0.0000
     13 H13         28.6653  36.6777  39.8905 H              1 <1>                0.0000
     14 H14         29.5920  36.6650  37.5905 H              1 <1>                0.0000
     15 H15         30.4281  37.8611  38.6094 H              1 <1>                0.0000
     16 H16         32.3169  36.3891  38.9248 H              1 <1>                0.0000
     17 H17         31.0271  34.2855  39.1702 H              1 <1>                0.0000
     18 H18         30.6685  34.3020  37.4269 H              1 <1>                0.0000
     19 H19         32.3445  34.0931  37.9888 H              1 <1>                0.0000
     20 H20         33.1110  35.0365  35.7594 H              1 <1>                0.0000
     21 H21         33.8132  36.6695  35.6673 H              1 <1>                0.0000
     22 H22         33.9965  35.7043  37.1516 H              1 <1>                0.0000
@<TRIPOS>BOND
    1    1    2 1     
    2    1   11 1     
    3    1   12 1     
    4    1   13 1     
    5    2    3 1     
    6    2   14 1     
    7    2   15 1     
    8    3    4 1     
    9    3    5 1     
   10    3   16 1     
   11    4   17 1     
   12    4   18 1     
   13    4   19 1     
   14    5    6 1     
   15    5    7 1     
   16    6   20 1     
   17    6   21 1     
   18    6   22 1     
   19    7    8 2     
   20    7    9 2     
   21    7   10 1     
@<TRIPOS>SUBSTRUCTURE
      1 ****           1
@<TRIPOS>COMMENT
> <Gold.Version>
2022.2.0

> <Gold.Id.Protein>
1qkm|1qkm_protein|mol2

> <Gold.Protein.RotatedTorsions>
[  496  491  490  487 ] final   51.22 input  -89.99 | X-H torsion

> <Gold.Protein.ActiveResidues>
 MET295  LEU298  THR299  LEU301  ALA302  GLU305  TRP335  MET336  LEU339  MET340 
 GLY342  LEU343  ARG346  PHE356  ILE373  ILE376  PHE377  LEU380  LYS471  GLY472 
 MET473  HIS475  LEU476  LEU477  ASN478  MET479  VAL484  VAL487 

> <Gold.Protein.RotatedAtoms>
   36.4819   33.4373   42.3487 H   0  0  0  0  0  0  0  0  0  0  0  0  # atno 496  bound_to 491 

> <Gold.Score>
     Score     S(PLP)   S(hbond)     S(cho)   S(metal)  DE(clash)   DE(tors)     intcor
     31.18     -31.82       0.00       0.00       0.00       0.00       1.32       2.00

> <Gold.PLP.Fitness>
31.1828

> <Gold.PLP.PLP>
-31.8225

> <Gold.PLP.part.hbond>
0.0000

> <Gold.PLP.part.metal>
0.0000

> <Gold.PLP.part.buried>
-1.6933

> <Gold.PLP.part.nonpolar>
-29.6089

> <Gold.PLP.part.repulsive>
0.0340

> <Gold.PLP.ligand.clash>
0.0000

> <Gold.PLP.ligand.torsion>
1.3210

> <Gold.PLP.Chemscore.Hbond>
0.0000

> <Gold.PLP.Chemscore.CHOScore>
0.0000

> <Gold.PLP.Chemscore.Metal>
0.0000

> <Gold.PLP.Chemscore.Internal.Correction>
2.0024

