#       Name:                EN300-272107_i002
#       Creating user name   aseyller
#       Creation time:       Fri Apr 21 18:45:39 2023


#       File generated by GOLD software.
#

@<TRIPOS>MOLECULE
EN300-272107_i002|Sulfonylchlorides|mol2|629|dock2
    22    21     1
SMALL
USER_CHARGES


@<TRIPOS>ATOM
      1 C1          26.3521  36.3953  39.6467 C.3            1 <1>                0.0000
      2 C2          27.6349  35.7877  39.0754 C.3            1 <1>                0.0000
      3 C3          28.7996  36.7546  39.2964 C.3            1 <1>                0.0000
      4 C4          29.0954  36.8631  40.7936 C.3            1 <1>                0.0000
      5 N5          29.9875  36.2560  38.5989 N.pl3          1 <1>                0.0000
      6 C6          30.5646  34.9613  38.9688 C.3            1 <1>                0.0000
      7 S7          30.6778  37.1557  37.3921 S.o2           1 <1>                0.0000
      8 O8          30.3478  36.5092  36.1706 O.2            1 <1>                0.0000
      9 O9          30.3527  38.5116  37.6664 O.2            1 <1>                0.0000
     10 Cl10        32.6809  36.9964  37.5987 Cl             1 <1>                0.0000
     11 H11         26.4787  36.5736  40.7145 H              1 <1>                0.0000
     12 H12         26.1415  37.3389  39.1432 H              1 <1>                0.0000
     13 H13         25.5222  35.7064  39.4892 H              1 <1>                0.0000
     14 H14         27.8454  34.8441  39.5788 H              1 <1>                0.0000
     15 H15         27.5082  35.6093  38.0076 H              1 <1>                0.0000
     16 H16         28.5350  37.7375  38.9062 H              1 <1>                0.0000
     17 H17         28.2116  37.2342  41.3126 H              1 <1>                0.0000
     18 H18         29.3601  35.8804  41.1838 H              1 <1>                0.0000
     19 H19         29.9253  37.5521  40.9511 H              1 <1>                0.0000
     20 H20         30.1064  34.1746  38.3694 H              1 <1>                0.0000
     21 H21         31.6392  34.9772  38.7871 H              1 <1>                0.0000
     22 H22         30.3776  34.7686  40.0252 H              1 <1>                0.0000
@<TRIPOS>BOND
    1    1    2 1     
    2    1   11 1     
    3    1   12 1     
    4    1   13 1     
    5    2    3 1     
    6    2   14 1     
    7    2   15 1     
    8    3    4 1     
    9    3    5 1     
   10    3   16 1     
   11    4   17 1     
   12    4   18 1     
   13    4   19 1     
   14    5    6 1     
   15    5    7 1     
   16    6   20 1     
   17    6   21 1     
   18    6   22 1     
   19    7    8 2     
   20    7    9 2     
   21    7   10 1     
@<TRIPOS>SUBSTRUCTURE
      1 ****           1
@<TRIPOS>COMMENT
> <Gold.Version>
2022.2.0

> <Gold.Id.Protein>
1qkm|1qkm_protein|mol2

> <Gold.Protein.RotatedTorsions>
[  496  491  490  487 ] final  175.96 input  -89.99 | X-H torsion

> <Gold.Protein.ActiveResidues>
 MET295  LEU298  THR299  LEU301  ALA302  GLU305  TRP335  MET336  LEU339  MET340 
 GLY342  LEU343  ARG346  PHE356  ILE373  ILE376  PHE377  LEU380  LYS471  GLY472 
 MET473  HIS475  LEU476  LEU477  ASN478  MET479  VAL484  VAL487 

> <Gold.Protein.RotatedAtoms>
   37.3188   33.4052   40.9024 H   0  0  0  0  0  0  0  0  0  0  0  0  # atno 496  bound_to 491 

> <Gold.Score>
     Score     S(PLP)   S(hbond)     S(cho)   S(metal)  DE(clash)   DE(tors)     intcor
     29.57     -29.90       0.00       0.00       0.00       0.00       1.18       2.03

> <Gold.PLP.Fitness>
29.5674

> <Gold.PLP.PLP>
-29.8958

> <Gold.PLP.part.hbond>
0.0000

> <Gold.PLP.part.metal>
0.0000

> <Gold.PLP.part.buried>
-0.8668

> <Gold.PLP.part.nonpolar>
-29.6107

> <Gold.PLP.part.repulsive>
0.0158

> <Gold.PLP.ligand.clash>
0.0000

> <Gold.PLP.ligand.torsion>
1.1816

> <Gold.PLP.Chemscore.Hbond>
0.0000

> <Gold.PLP.Chemscore.CHOScore>
0.0000

> <Gold.PLP.Chemscore.Metal>
0.0000

> <Gold.PLP.Chemscore.Internal.Correction>
2.0348

