#       Name:                EN300-272107_i002
#       Creating user name   aseyller
#       Creation time:       Fri Apr 21 18:45:45 2023


#       File generated by GOLD software.
#

@<TRIPOS>MOLECULE
EN300-272107_i002|Sulfonylchlorides|mol2|629|dock13
    22    21     1
SMALL
USER_CHARGES


@<TRIPOS>ATOM
      1 C1          32.2960  35.8152  38.1976 C.3            1 <1>                0.0000
      2 C2          30.8202  35.8322  38.6013 C.3            1 <1>                0.0000
      3 C3          30.2511  37.2371  38.3947 C.3            1 <1>                0.0000
      4 C4          30.6467  37.7490  37.0082 C.3            1 <1>                0.0000
      5 N5          28.7906  37.1929  38.5005 N.pl3          1 <1>                0.0000
      6 C6          27.9661  38.0012  37.5987 C.3            1 <1>                0.0000
      7 S7          28.0716  36.2293  39.6392 S.o2           1 <1>                0.0000
      8 O8          28.1428  34.8997  39.1427 O.2            1 <1>                0.0000
      9 O9          28.6114  36.6201  40.8943 O.2            1 <1>                0.0000
     10 Cl10        26.1119  36.7171  39.6843 Cl             1 <1>                0.0000
     11 H11         32.3888  36.0942  37.1480 H              1 <1>                0.0000
     12 H12         32.8490  36.5253  38.8125 H              1 <1>                0.0000
     13 H13         32.7015  34.8142  38.3448 H              1 <1>                0.0000
     14 H14         30.2672  35.1221  37.9864 H              1 <1>                0.0000
     15 H15         30.7274  35.5532  39.6509 H              1 <1>                0.0000
     16 H16         30.6504  37.9066  39.1567 H              1 <1>                0.0000
     17 H17         31.7334  37.7819  36.9295 H              1 <1>                0.0000
     18 H18         30.2474  37.0796  36.2463 H              1 <1>                0.0000
     19 H19         30.2413  38.7500  36.8611 H              1 <1>                0.0000
     20 H20         27.7364  37.4253  36.7022 H              1 <1>                0.0000
     21 H21         27.0389  38.2753  38.1019 H              1 <1>                0.0000
     22 H22         28.5095  38.9043  37.3211 H              1 <1>                0.0000
@<TRIPOS>BOND
    1    1    2 1     
    2    1   11 1     
    3    1   12 1     
    4    1   13 1     
    5    2    3 1     
    6    2   14 1     
    7    2   15 1     
    8    3    4 1     
    9    3    5 1     
   10    3   16 1     
   11    4   17 1     
   12    4   18 1     
   13    4   19 1     
   14    5    6 1     
   15    5    7 1     
   16    6   20 1     
   17    6   21 1     
   18    6   22 1     
   19    7    8 2     
   20    7    9 2     
   21    7   10 1     
@<TRIPOS>SUBSTRUCTURE
      1 ****           1
@<TRIPOS>COMMENT
> <Gold.Version>
2022.2.0

> <Gold.Id.Protein>
1qkm|1qkm_protein|mol2

> <Gold.Protein.RotatedTorsions>
[  496  491  490  487 ] final   35.45 input  -89.99 | X-H torsion

> <Gold.Protein.ActiveResidues>
 MET295  LEU298  THR299  LEU301  ALA302  GLU305  TRP335  MET336  LEU339  MET340 
 GLY342  LEU343  ARG346  PHE356  ILE373  ILE376  PHE377  LEU380  LYS471  GLY472 
 MET473  HIS475  LEU476  LEU477  ASN478  MET479  VAL484  VAL487 

> <Gold.Protein.RotatedAtoms>
   36.3761   33.6708   42.3832 H   0  0  0  0  0  0  0  0  0  0  0  0  # atno 496  bound_to 491 

> <Gold.Score>
     Score     S(PLP)   S(hbond)     S(cho)   S(metal)  DE(clash)   DE(tors)     intcor
     29.65     -31.49       0.00       0.00       0.00       0.00       1.91       1.98

> <Gold.PLP.Fitness>
29.6468

> <Gold.PLP.PLP>
-31.4888

> <Gold.PLP.part.hbond>
0.0000

> <Gold.PLP.part.metal>
0.0000

> <Gold.PLP.part.buried>
-2.9632

> <Gold.PLP.part.nonpolar>
-28.7576

> <Gold.PLP.part.repulsive>
0.1104

> <Gold.PLP.ligand.clash>
0.0000

> <Gold.PLP.ligand.torsion>
1.9123

> <Gold.PLP.Chemscore.Hbond>
0.0000

> <Gold.PLP.Chemscore.CHOScore>
0.0000

> <Gold.PLP.Chemscore.Metal>
0.0000

> <Gold.PLP.Chemscore.Internal.Correction>
1.9827

