#       Name:                EN300-272107_i002
#       Creating user name   aseyller
#       Creation time:       Fri Apr 21 18:45:44 2023


#       File generated by GOLD software.
#

@<TRIPOS>MOLECULE
EN300-272107_i002|Sulfonylchlorides|mol2|629|dock11
    22    21     1
SMALL
USER_CHARGES


@<TRIPOS>ATOM
      1 C1          28.5377  36.3488  41.4676 C.3            1 <1>                0.0000
      2 C2          29.2300  36.9988  40.2679 C.3            1 <1>                0.0000
      3 C3          30.0103  35.9360  39.4919 C.3            1 <1>                0.0000
      4 C4          29.0464  34.8561  38.9962 C.3            1 <1>                0.0000
      5 N5          30.6766  36.5591  38.3456 N.pl3          1 <1>                0.0000
      6 C6          30.2200  37.8605  37.8515 C.3            1 <1>                0.0000
      7 S7          31.9460  35.7925  37.6085 S.o2           1 <1>                0.0000
      8 O8          31.6888  35.8425  36.2119 O.2            1 <1>                0.0000
      9 O9          33.1280  36.3141  38.2002 O.2            1 <1>                0.0000
     10 Cl10        31.8558  33.8446  38.1357 Cl             1 <1>                0.0000
     11 H11         27.8516  35.5777  41.1173 H              1 <1>                0.0000
     12 H12         29.2868  35.8995  42.1197 H              1 <1>                0.0000
     13 H13         27.9819  37.1060  42.0206 H              1 <1>                0.0000
     14 H14         28.4810  37.4481  39.6159 H              1 <1>                0.0000
     15 H15         29.9162  37.7699  40.6182 H              1 <1>                0.0000
     16 H16         30.7572  35.4844  40.1449 H              1 <1>                0.0000
     17 H17         28.5506  34.3924  39.8491 H              1 <1>                0.0000
     18 H18         28.2996  35.3076  38.3432 H              1 <1>                0.0000
     19 H19         29.6023  34.0988  38.4434 H              1 <1>                0.0000
     20 H20         30.7613  38.6547  38.3656 H              1 <1>                0.0000
     21 H21         30.4071  37.9282  36.7798 H              1 <1>                0.0000
     22 H22         29.1520  37.9669  38.0412 H              1 <1>                0.0000
@<TRIPOS>BOND
    1    1    2 1     
    2    1   11 1     
    3    1   12 1     
    4    1   13 1     
    5    2    3 1     
    6    2   14 1     
    7    2   15 1     
    8    3    4 1     
    9    3    5 1     
   10    3   16 1     
   11    4   17 1     
   12    4   18 1     
   13    4   19 1     
   14    5    6 1     
   15    5    7 1     
   16    6   20 1     
   17    6   21 1     
   18    6   22 1     
   19    7    8 2     
   20    7    9 2     
   21    7   10 1     
@<TRIPOS>SUBSTRUCTURE
      1 ****           1
@<TRIPOS>COMMENT
> <Gold.Version>
2022.2.0

> <Gold.Id.Protein>
1qkm|1qkm_protein|mol2

> <Gold.Protein.RotatedTorsions>
[  496  491  490  487 ] final  -79.71 input  -89.99 | X-H torsion

> <Gold.Protein.ActiveResidues>
 MET295  LEU298  THR299  LEU301  ALA302  GLU305  TRP335  MET336  LEU339  MET340 
 GLY342  LEU343  ARG346  PHE356  ILE373  ILE376  PHE377  LEU380  LYS471  GLY472 
 MET473  HIS475  LEU476  LEU477  ASN478  MET479  VAL484  VAL487 

> <Gold.Protein.RotatedAtoms>
   36.6633   34.7074   41.2091 H   0  0  0  0  0  0  0  0  0  0  0  0  # atno 496  bound_to 491 

> <Gold.Score>
     Score     S(PLP)   S(hbond)     S(cho)   S(metal)  DE(clash)   DE(tors)     intcor
     30.93     -32.47       0.00       0.00       0.00       0.00       1.76       1.98

> <Gold.PLP.Fitness>
30.9254

> <Gold.PLP.PLP>
-32.4739

> <Gold.PLP.part.hbond>
0.0000

> <Gold.PLP.part.metal>
0.0000

> <Gold.PLP.part.buried>
-0.5245

> <Gold.PLP.part.nonpolar>
-32.5679

> <Gold.PLP.part.repulsive>
0.0994

> <Gold.PLP.ligand.clash>
0.0040

> <Gold.PLP.ligand.torsion>
1.7636

> <Gold.PLP.Chemscore.Hbond>
0.0000

> <Gold.PLP.Chemscore.CHOScore>
0.0000

> <Gold.PLP.Chemscore.Metal>
0.0000

> <Gold.PLP.Chemscore.Internal.Correction>
1.9827

