#       Name:                EN300-272107_i002
#       Creating user name   aseyller
#       Creation time:       Fri Apr 21 18:45:47 2023


#       File generated by GOLD software.
#

@<TRIPOS>MOLECULE
EN300-272107_i002|Sulfonylchlorides|mol2|629|dock15
    22    21     1
SMALL
USER_CHARGES


@<TRIPOS>ATOM
      1 C1          25.8080  36.9759  41.1656 C.3            1 <1>                0.0000
      2 C2          26.6811  36.5371  39.9882 C.3            1 <1>                0.0000
      3 C3          28.1565  36.6988  40.3592 C.3            1 <1>                0.0000
      4 C4          28.4967  35.7602  41.5187 C.3            1 <1>                0.0000
      5 N5          28.9905  36.3668  39.2015 N.pl3          1 <1>                0.0000
      6 C6          29.6707  35.0710  39.1362 C.3            1 <1>                0.0000
      7 S7          29.1643  37.4563  37.9665 S.o2           1 <1>                0.0000
      8 O8          29.9618  38.5164  38.4758 O.2            1 <1>                0.0000
      9 O9          29.5164  36.7034  36.8138 O.2            1 <1>                0.0000
     10 Cl10        27.3393  38.2407  37.5998 Cl             1 <1>                0.0000
     11 H11         26.0338  36.3587  42.0352 H              1 <1>                0.0000
     12 H12         26.0116  38.0210  41.3992 H              1 <1>                0.0000
     13 H13         24.7569  36.8607  40.9012 H              1 <1>                0.0000
     14 H14         26.4776  35.4921  39.7546 H              1 <1>                0.0000
     15 H15         26.4554  37.1544  39.1186 H              1 <1>                0.0000
     16 H16         28.3449  37.7298  40.6590 H              1 <1>                0.0000
     17 H17         27.8762  36.0073  42.3801 H              1 <1>                0.0000
     18 H18         28.3083  34.7294  41.2189 H              1 <1>                0.0000
     19 H19         29.5478  35.8755  41.7831 H              1 <1>                0.0000
     20 H20         29.0219  34.3442  38.6474 H              1 <1>                0.0000
     21 H21         30.5946  35.1738  38.5671 H              1 <1>                0.0000
     22 H22         29.9017  34.7306  40.1456 H              1 <1>                0.0000
@<TRIPOS>BOND
    1    1    2 1     
    2    1   11 1     
    3    1   12 1     
    4    1   13 1     
    5    2    3 1     
    6    2   14 1     
    7    2   15 1     
    8    3    4 1     
    9    3    5 1     
   10    3   16 1     
   11    4   17 1     
   12    4   18 1     
   13    4   19 1     
   14    5    6 1     
   15    5    7 1     
   16    6   20 1     
   17    6   21 1     
   18    6   22 1     
   19    7    8 2     
   20    7    9 2     
   21    7   10 1     
@<TRIPOS>SUBSTRUCTURE
      1 ****           1
@<TRIPOS>COMMENT
> <Gold.Version>
2022.2.0

> <Gold.Id.Protein>
1qkm|1qkm_protein|mol2

> <Gold.Protein.RotatedTorsions>
[  496  491  490  487 ] final  103.20 input  -89.99 | X-H torsion

> <Gold.Protein.ActiveResidues>
 MET295  LEU298  THR299  LEU301  ALA302  GLU305  TRP335  MET336  LEU339  MET340 
 GLY342  LEU343  ARG346  PHE356  ILE373  ILE376  PHE377  LEU380  LYS471  GLY472 
 MET473  HIS475  LEU476  LEU477  ASN478  MET479  VAL484  VAL487 

> <Gold.Protein.RotatedAtoms>
   36.9403   32.9576   41.8554 H   0  0  0  0  0  0  0  0  0  0  0  0  # atno 496  bound_to 491 

> <Gold.Score>
     Score     S(PLP)   S(hbond)     S(cho)   S(metal)  DE(clash)   DE(tors)     intcor
     30.49     -31.94       0.00       0.00       0.00       0.22       1.61       1.98

> <Gold.PLP.Fitness>
30.4869

> <Gold.PLP.PLP>
-31.9434

> <Gold.PLP.part.hbond>
0.0000

> <Gold.PLP.part.metal>
0.0000

> <Gold.PLP.part.buried>
0.5285

> <Gold.PLP.part.nonpolar>
-32.3855

> <Gold.PLP.part.repulsive>
0.0000

> <Gold.PLP.ligand.clash>
0.2171

> <Gold.PLP.ligand.torsion>
1.6110

> <Gold.PLP.Chemscore.Hbond>
0.0000

> <Gold.PLP.Chemscore.CHOScore>
0.0000

> <Gold.PLP.Chemscore.Metal>
0.0000

> <Gold.PLP.Chemscore.Internal.Correction>
1.9827

