#       Name:                EN300-272107_i002
#       Creating user name   aseyller
#       Creation time:       Fri Apr 21 18:45:39 2023


#       File generated by GOLD software.
#

@<TRIPOS>MOLECULE
EN300-272107_i002|Sulfonylchlorides|mol2|629|dock1
    22    21     1
SMALL
USER_CHARGES


@<TRIPOS>ATOM
      1 C1          29.6109  39.6067  36.1156 C.3            1 <1>                0.0000
      2 C2          28.5326  39.0667  37.0572 C.3            1 <1>                0.0000
      3 C3          28.8580  37.6186  37.4282 C.3            1 <1>                0.0000
      4 C4          30.3093  37.5280  37.9044 C.3            1 <1>                0.0000
      5 N5          27.9637  37.1764  38.5008 N.pl3          1 <1>                0.0000
      6 C6          26.5605  37.5973  38.5048 C.3            1 <1>                0.0000
      7 S7          28.5387  36.2005  39.7089 S.o2           1 <1>                0.0000
      8 O8          28.9516  34.9918  39.0861 O.2            1 <1>                0.0000
      9 O9          29.4063  37.0050  40.4959 O.2            1 <1>                0.0000
     10 Cl10        26.9714  35.7262  40.8916 Cl             1 <1>                0.0000
     11 H11         30.5801  39.5681  36.6130 H              1 <1>                0.0000
     12 H12         29.6419  38.9982  35.2117 H              1 <1>                0.0000
     13 H13         29.3790  40.6384  35.8512 H              1 <1>                0.0000
     14 H14         28.5015  39.6752  37.9609 H              1 <1>                0.0000
     15 H15         27.5634  39.1053  36.5598 H              1 <1>                0.0000
     16 H16         28.7216  36.9803  36.5551 H              1 <1>                0.0000
     17 H17         30.9747  37.8570  37.1062 H              1 <1>                0.0000
     18 H18         30.4457  38.1661  38.7774 H              1 <1>                0.0000
     19 H19         30.5412  36.4962  38.1686 H              1 <1>                0.0000
     20 H20         25.9618  36.8715  37.9545 H              1 <1>                0.0000
     21 H21         26.2025  37.6589  39.5325 H              1 <1>                0.0000
     22 H22         26.4730  38.5748  38.0304 H              1 <1>                0.0000
@<TRIPOS>BOND
    1    1    2 1     
    2    1   11 1     
    3    1   12 1     
    4    1   13 1     
    5    2    3 1     
    6    2   14 1     
    7    2   15 1     
    8    3    4 1     
    9    3    5 1     
   10    3   16 1     
   11    4   17 1     
   12    4   18 1     
   13    4   19 1     
   14    5    6 1     
   15    5    7 1     
   16    6   20 1     
   17    6   21 1     
   18    6   22 1     
   19    7    8 2     
   20    7    9 2     
   21    7   10 1     
@<TRIPOS>SUBSTRUCTURE
      1 ****           1
@<TRIPOS>COMMENT
> <Gold.Version>
2022.2.0

> <Gold.Id.Protein>
1qkm|1qkm_protein|mol2

> <Gold.Protein.RotatedTorsions>
[  496  491  490  487 ] final -172.92 input  -89.99 | X-H torsion

> <Gold.Protein.ActiveResidues>
 MET295  LEU298  THR299  LEU301  ALA302  GLU305  TRP335  MET336  LEU339  MET340 
 GLY342  LEU343  ARG346  PHE356  ILE373  ILE376  PHE377  LEU380  LYS471  GLY472 
 MET473  HIS475  LEU476  LEU477  ASN478  MET479  VAL484  VAL487 

> <Gold.Protein.RotatedAtoms>
   37.3099   33.5651   40.8144 H   0  0  0  0  0  0  0  0  0  0  0  0  # atno 496  bound_to 491 

> <Gold.Score>
     Score     S(PLP)   S(hbond)     S(cho)   S(metal)  DE(clash)   DE(tors)     intcor
     30.05     -31.87       0.00       0.00       0.00       0.00       1.93       2.03

> <Gold.PLP.Fitness>
30.0481

> <Gold.PLP.PLP>
-31.8711

> <Gold.PLP.part.hbond>
0.0000

> <Gold.PLP.part.metal>
0.0000

> <Gold.PLP.part.buried>
-1.9913

> <Gold.PLP.part.nonpolar>
-29.8908

> <Gold.PLP.part.repulsive>
0.1263

> <Gold.PLP.ligand.clash>
0.0000

> <Gold.PLP.ligand.torsion>
1.9289

> <Gold.PLP.Chemscore.Hbond>
0.0000

> <Gold.PLP.Chemscore.CHOScore>
0.0000

> <Gold.PLP.Chemscore.Metal>
0.0000

> <Gold.PLP.Chemscore.Internal.Correction>
2.0348

