#       Name:                EN300-272107_i002
#       Creating user name   aseyller
#       Creation time:       Fri Apr 21 18:45:49 2023


#       File generated by GOLD software.
#

@<TRIPOS>MOLECULE
EN300-272107_i002|Sulfonylchlorides|mol2|629|dock19
    22    21     1
SMALL
USER_CHARGES


@<TRIPOS>ATOM
      1 C1          31.8021  33.4402  37.9196 C.3            1 <1>                0.0000
      2 C2          31.3951  34.6242  38.7990 C.3            1 <1>                0.0000
      3 C3          30.7144  35.6894  37.9373 C.3            1 <1>                0.0000
      4 C4          30.0096  36.7029  38.8412 C.3            1 <1>                0.0000
      5 N5          31.7210  36.3769  37.1248 N.pl3          1 <1>                0.0000
      6 C6          33.1413  36.0613  37.2966 C.3            1 <1>                0.0000
      7 S7          31.2535  37.5107  36.0120 S.o2           1 <1>                0.0000
      8 O8          30.0954  36.9919  35.3727 O.2            1 <1>                0.0000
      9 O9          31.2760  38.7637  36.6821 O.2            1 <1>                0.0000
     10 Cl10        32.6958  37.5931  34.6001 Cl             1 <1>                0.0000
     11 H11         30.9153  33.0150  37.4495 H              1 <1>                0.0000
     12 H12         32.4938  33.7808  37.1491 H              1 <1>                0.0000
     13 H13         32.2871  32.6813  38.5336 H              1 <1>                0.0000
     14 H14         30.7035  34.2837  39.5695 H              1 <1>                0.0000
     15 H15         32.2819  35.0494  39.2691 H              1 <1>                0.0000
     16 H16         29.9823  35.2148  37.2838 H              1 <1>                0.0000
     17 H17         29.2606  36.1914  39.4457 H              1 <1>                0.0000
     18 H18         30.7416  37.1775  39.4946 H              1 <1>                0.0000
     19 H19         29.5246  37.4618  38.2272 H              1 <1>                0.0000
     20 H20         33.4171  35.2494  36.6237 H              1 <1>                0.0000
     21 H21         33.7397  36.9429  37.0667 H              1 <1>                0.0000
     22 H22         33.3238  35.7570  38.3272 H              1 <1>                0.0000
@<TRIPOS>BOND
    1    1    2 1     
    2    1   11 1     
    3    1   12 1     
    4    1   13 1     
    5    2    3 1     
    6    2   14 1     
    7    2   15 1     
    8    3    4 1     
    9    3    5 1     
   10    3   16 1     
   11    4   17 1     
   12    4   18 1     
   13    4   19 1     
   14    5    6 1     
   15    5    7 1     
   16    6   20 1     
   17    6   21 1     
   18    6   22 1     
   19    7    8 2     
   20    7    9 2     
   21    7   10 1     
@<TRIPOS>SUBSTRUCTURE
      1 ****           1
@<TRIPOS>COMMENT
> <Gold.Version>
2022.2.0

> <Gold.Id.Protein>
1qkm|1qkm_protein|mol2

> <Gold.Protein.RotatedTorsions>
[  496  491  490  487 ] final -130.54 input  -89.99 | X-H torsion

> <Gold.Protein.ActiveResidues>
 MET295  LEU298  THR299  LEU301  ALA302  GLU305  TRP335  MET336  LEU339  MET340 
 GLY342  LEU343  ARG346  PHE356  ILE373  ILE376  PHE377  LEU380  LYS471  GLY472 
 MET473  HIS475  LEU476  LEU477  ASN478  MET479  VAL484  VAL487 

> <Gold.Protein.RotatedAtoms>
   37.1088   34.2131   40.7479 H   0  0  0  0  0  0  0  0  0  0  0  0  # atno 496  bound_to 491 

> <Gold.Score>
     Score     S(PLP)   S(hbond)     S(cho)   S(metal)  DE(clash)   DE(tors)     intcor
     30.67     -32.63       0.00       0.00       0.00       1.26       1.34       1.98

> <Gold.PLP.Fitness>
30.6680

> <Gold.PLP.PLP>
-32.6326

> <Gold.PLP.part.hbond>
0.0000

> <Gold.PLP.part.metal>
0.0000

> <Gold.PLP.part.buried>
-1.5107

> <Gold.PLP.part.nonpolar>
-31.3388

> <Gold.PLP.part.repulsive>
0.0387

> <Gold.PLP.ligand.clash>
1.2624

> <Gold.PLP.ligand.torsion>
1.3425

> <Gold.PLP.Chemscore.Hbond>
0.0000

> <Gold.PLP.Chemscore.CHOScore>
0.0000

> <Gold.PLP.Chemscore.Metal>
0.0000

> <Gold.PLP.Chemscore.Internal.Correction>
1.9827

