#       Name:                EN300-4296250_i001
#       Creating user name   aseyller
#       Creation time:       Fri Apr 21 14:05:41 2023


#       File generated by GOLD software.
#

@<TRIPOS>MOLECULE
EN300-4296250_i001|amine_1|mol2|584|dock19
    16    16     1
SMALL
USER_CHARGES


@<TRIPOS>ATOM
      1 N1          27.9040  35.2033  42.3479 N.pl3          1 <1>                0.0000
      2 C2          28.0998  35.9077  41.1595 C.ar           1 <1>                0.0000
      3 C3          29.3904  36.1480  40.7000 C.ar           1 <1>                0.0000
      4 C4          29.5879  36.8428  39.5267 C.ar           1 <1>                0.0000
      5 C5          28.4908  37.3062  38.7980 C.ar           1 <1>                0.0000
      6 C6          28.6929  38.0280  37.5779 C.1            1 <1>                0.0000
      7 C7          28.8585  38.6200  36.5777 C.1            1 <1>                0.0000
      8 C8          27.1954  37.0634  39.2615 C.ar           1 <1>                0.0000
      9 Cl9         25.8277  37.6368  38.3592 Cl             1 <1>                0.0000
     10 C10         27.0047  36.3626  40.4344 C.ar           1 <1>                0.0000
     11 H11         30.2390  35.7899  41.2639 H              1 <1>                0.0000
     12 H12         30.5905  37.0291  39.1711 H              1 <1>                0.0000
     13 H13         29.0067  39.1493  35.6831 H              1 <1>                0.0000
     14 H14         26.0038  36.1740  40.7936 H              1 <1>                0.0000
     15 H15         28.6673  34.8819  42.8526 H              1 <1>                0.0000
     16 H16         27.0044  35.0385  42.6713 H              1 <1>                0.0000
@<TRIPOS>BOND
    1    1    2 1     
    2    1   15 1     
    3    1   16 1     
    4    2    3 ar    
    5    2   10 ar    
    6    3    4 ar    
    7    3   11 1     
    8    4    5 ar    
    9    4   12 1     
   10    5    6 1     
   11    5    8 ar    
   12    6    7 3     
   13    7   13 1     
   14    8    9 1     
   15    8   10 ar    
   16   10   14 1     
@<TRIPOS>SUBSTRUCTURE
      1 ****           1
@<TRIPOS>SET
DONOR_HYDROGENS      STATIC     ATOMS    <user>   **** ""
2 15 16
ATOM$RED        STATIC     ATOMS    COLORGROUP SYSTEM
2 15 16
@<TRIPOS>COMMENT
> <Gold.Version>
2022.2.0

> <Gold.Id.Protein>
1qkm|1qkm_protein|mol2

> <Gold.Protein.RotatedTorsions>
[  496  491  490  487 ] final   70.99 input  -89.99 | X-H torsion

> <Gold.Protein.ActiveResidues>
 MET295  LEU298  THR299  LEU301  ALA302  GLU305  TRP335  MET336  LEU339  MET340 
 GLY342  LEU343  ARG346  PHE356  ILE373  ILE376  PHE377  LEU380  LYS471  GLY472 
 MET473  HIS475  LEU476  LEU477  ASN478  MET479  VAL484  VAL487 

> <Gold.Protein.RotatedAtoms>
   36.6462   33.1889   42.2213 H   0  0  0  0  0  0  0  0  0  0  0  0  # atno 496  bound_to 491 

> <Gold.Score>
     Score     S(PLP)   S(hbond)     S(cho)   S(metal)  DE(clash)   DE(tors)     intcor
     35.85     -32.94       0.97       0.00       0.00       0.00       0.00       0.00

> <Gold.PLP.Fitness>
35.8455

> <Gold.PLP.PLP>
-32.9432

> <Gold.PLP.part.hbond>
-0.5810

> <Gold.PLP.part.metal>
0.0000

> <Gold.PLP.part.buried>
-0.3498

> <Gold.PLP.part.nonpolar>
-32.3371

> <Gold.PLP.part.repulsive>
0.0932

> <Gold.PLP.ligand.clash>
0.0000

> <Gold.PLP.ligand.torsion>
0.0000

> <Gold.PLP.Chemscore.Hbond>
0.9675

> <Gold.PLP.Chemscore.CHOScore>
0.0000

> <Gold.PLP.Chemscore.Metal>
0.0000

> <Gold.Chemscore.Hbonds>
donor molecule, donor type, donor heavy atom, donor atom, acceptor molecule, acceptor atom, score
      L1  H     1    16       P1   582  0.97

> <Gold.PLP.Chemscore.Internal.Correction>
0.0000

