#       Name:                EN300-4296250_i001
#       Creating user name   aseyller
#       Creation time:       Fri Apr 21 14:05:38 2023


#       File generated by GOLD software.
#

@<TRIPOS>MOLECULE
EN300-4296250_i001|amine_1|mol2|584|dock5
    16    16     1
SMALL
USER_CHARGES


@<TRIPOS>ATOM
      1 N1          24.7566  36.0726  41.6165 N.pl3          1 <1>                0.0000
      2 C2          25.8458  36.3891  40.8040 C.ar           1 <1>                0.0000
      3 C3          25.6350  36.9433  39.5459 C.ar           1 <1>                0.0000
      4 C4          26.7081  37.2576  38.7408 C.ar           1 <1>                0.0000
      5 C5          28.0088  37.0194  39.1886 C.ar           1 <1>                0.0000
      6 C6          29.1260  37.3455  38.3544 C.1            1 <1>                0.0000
      7 C7          30.0420  37.6128  37.6704 C.1            1 <1>                0.0000
      8 C8          28.2180  36.4628  40.4528 C.ar           1 <1>                0.0000
      9 Cl9         29.8332  36.1651  41.0150 Cl             1 <1>                0.0000
     10 C10         27.1393  36.1553  41.2560 C.ar           1 <1>                0.0000
     11 H11         24.6288  37.1271  39.1993 H              1 <1>                0.0000
     12 H12         26.5431  37.6875  37.7638 H              1 <1>                0.0000
     13 H13         30.8612  37.8520  37.0587 H              1 <1>                0.0000
     14 H14         27.2997  35.7252  42.2336 H              1 <1>                0.0000
     15 H15         23.8537  36.2391  41.3039 H              1 <1>                0.0000
     16 H16         24.9023  35.6825  42.4927 H              1 <1>                0.0000
@<TRIPOS>BOND
    1    1    2 1     
    2    1   15 1     
    3    1   16 1     
    4    2    3 ar    
    5    2   10 ar    
    6    3    4 ar    
    7    3   11 1     
    8    4    5 ar    
    9    4   12 1     
   10    5    6 1     
   11    5    8 ar    
   12    6    7 3     
   13    7   13 1     
   14    8    9 1     
   15    8   10 ar    
   16   10   14 1     
@<TRIPOS>SUBSTRUCTURE
      1 ****           1
@<TRIPOS>SET
DONOR_HYDROGENS      STATIC     ATOMS    <user>   **** ""
2 15 16
ATOM$RED        STATIC     ATOMS    COLORGROUP SYSTEM
2 15 16
@<TRIPOS>COMMENT
> <Gold.Version>
2022.2.0

> <Gold.Id.Protein>
1qkm|1qkm_protein|mol2

> <Gold.Protein.RotatedTorsions>
[  496  491  490  487 ] final -111.10 input  -89.99 | X-H torsion

> <Gold.Protein.ActiveResidues>
 MET295  LEU298  THR299  LEU301  ALA302  GLU305  TRP335  MET336  LEU339  MET340 
 GLY342  LEU343  ARG346  PHE356  ILE373  ILE376  PHE377  LEU380  LYS471  GLY472 
 MET473  HIS475  LEU476  LEU477  ASN478  MET479  VAL484  VAL487 

> <Gold.Protein.RotatedAtoms>
   36.9499   34.4632   40.8645 H   0  0  0  0  0  0  0  0  0  0  0  0  # atno 496  bound_to 491 

> <Gold.Score>
     Score     S(PLP)   S(hbond)     S(cho)   S(metal)  DE(clash)   DE(tors)     intcor
     39.57     -34.03       1.85       0.00       0.00       0.00       0.00       0.00

> <Gold.PLP.Fitness>
39.5680

> <Gold.PLP.PLP>
-34.0273

> <Gold.PLP.part.hbond>
-2.0000

> <Gold.PLP.part.metal>
0.0000

> <Gold.PLP.part.buried>
3.0570

> <Gold.PLP.part.nonpolar>
-36.6269

> <Gold.PLP.part.repulsive>
1.0767

> <Gold.PLP.ligand.clash>
0.0000

> <Gold.PLP.ligand.torsion>
0.0000

> <Gold.PLP.Chemscore.Hbond>
1.8469

> <Gold.PLP.Chemscore.CHOScore>
0.0000

> <Gold.PLP.Chemscore.Metal>
0.0000

> <Gold.Chemscore.Hbonds>
donor molecule, donor type, donor heavy atom, donor atom, acceptor molecule, acceptor atom, score
      L1  H     1    15       P1  1131  0.89
      L1  H     1    16       P1   582  0.96

> <Gold.PLP.Chemscore.Internal.Correction>
0.0000

