#       Name:                EN300-4296250_i001
#       Creating user name   aseyller
#       Creation time:       Fri Apr 21 14:05:40 2023


#       File generated by GOLD software.
#

@<TRIPOS>MOLECULE
EN300-4296250_i001|amine_1|mol2|584|dock15
    16    16     1
SMALL
USER_CHARGES


@<TRIPOS>ATOM
      1 N1          29.8839  35.8297  40.2647 N.pl3          1 <1>                0.0000
      2 C2          30.5933  36.0497  39.0835 C.ar           1 <1>                0.0000
      3 C3          31.7210  35.2869  38.7992 C.ar           1 <1>                0.0000
      4 C4          32.4239  35.5008  37.6336 C.ar           1 <1>                0.0000
      5 C5          32.0034  36.4847  36.7367 C.ar           1 <1>                0.0000
      6 C6          32.7315  36.7090  35.5243 C.1            1 <1>                0.0000
      7 C7          33.3285  36.8929  34.5302 C.1            1 <1>                0.0000
      8 C8          30.8702  37.2495  37.0245 C.ar           1 <1>                0.0000
      9 Cl9         30.3425  38.4738  35.9127 Cl             1 <1>                0.0000
     10 C10         30.1680  37.0266  38.1909 C.ar           1 <1>                0.0000
     11 H11         32.0465  34.5261  39.4932 H              1 <1>                0.0000
     12 H12         33.2997  34.9081  37.4141 H              1 <1>                0.0000
     13 H13         33.8624  37.0574  33.6412 H              1 <1>                0.0000
     14 H14         29.2917  37.6169  38.4144 H              1 <1>                0.0000
     15 H15         30.1774  35.1455  40.8865 H              1 <1>                0.0000
     16 H16         29.0995  36.3637  40.4660 H              1 <1>                0.0000
@<TRIPOS>BOND
    1    1    2 1     
    2    1   15 1     
    3    1   16 1     
    4    2    3 ar    
    5    2   10 ar    
    6    3    4 ar    
    7    3   11 1     
    8    4    5 ar    
    9    4   12 1     
   10    5    6 1     
   11    5    8 ar    
   12    6    7 3     
   13    7   13 1     
   14    8    9 1     
   15    8   10 ar    
   16   10   14 1     
@<TRIPOS>SUBSTRUCTURE
      1 ****           1
@<TRIPOS>SET
DONOR_HYDROGENS      STATIC     ATOMS    <user>   **** ""
2 15 16
ATOM$RED        STATIC     ATOMS    COLORGROUP SYSTEM
2 15 16
@<TRIPOS>COMMENT
> <Gold.Version>
2022.2.0

> <Gold.Id.Protein>
1qkm|1qkm_protein|mol2

> <Gold.Protein.RotatedTorsions>
[  496  491  490  487 ] final  165.32 input  -89.99 | X-H torsion

> <Gold.Protein.ActiveResidues>
 MET295  LEU298  THR299  LEU301  ALA302  GLU305  TRP335  MET336  LEU339  MET340 
 GLY342  LEU343  ARG346  PHE356  ILE373  ILE376  PHE377  LEU380  LYS471  GLY472 
 MET473  HIS475  LEU476  LEU477  ASN478  MET479  VAL484  VAL487 

> <Gold.Protein.RotatedAtoms>
   37.3086   33.2673   41.0094 H   0  0  0  0  0  0  0  0  0  0  0  0  # atno 496  bound_to 491 

> <Gold.Score>
     Score     S(PLP)   S(hbond)     S(cho)   S(metal)  DE(clash)   DE(tors)     intcor
     37.09     -35.31       0.59       0.00       0.00       0.00       0.00       0.00

> <Gold.PLP.Fitness>
37.0864

> <Gold.PLP.PLP>
-35.3104

> <Gold.PLP.part.hbond>
-1.0000

> <Gold.PLP.part.metal>
0.0000

> <Gold.PLP.part.buried>
-0.8179

> <Gold.PLP.part.nonpolar>
-33.3550

> <Gold.PLP.part.repulsive>
0.0684

> <Gold.PLP.ligand.clash>
0.0000

> <Gold.PLP.ligand.torsion>
0.0000

> <Gold.PLP.Chemscore.Hbond>
0.5920

> <Gold.PLP.Chemscore.CHOScore>
0.0000

> <Gold.PLP.Chemscore.Metal>
0.0000

> <Gold.Chemscore.Hbonds>
donor molecule, donor type, donor heavy atom, donor atom, acceptor molecule, acceptor atom, score
      L1  H     1    15       P1   470  0.59

> <Gold.PLP.Chemscore.Internal.Correction>
0.0000

