#       Name:                EN300-4296250_i001
#       Creating user name   aseyller
#       Creation time:       Fri Apr 21 14:05:39 2023


#       File generated by GOLD software.
#

@<TRIPOS>MOLECULE
EN300-4296250_i001|amine_1|mol2|584|dock7
    16    16     1
SMALL
USER_CHARGES


@<TRIPOS>ATOM
      1 N1          27.5951  34.9079  41.9736 N.pl3          1 <1>                0.0000
      2 C2          27.7596  35.7254  40.8549 C.ar           1 <1>                0.0000
      3 C3          26.6720  36.4221  40.3388 C.ar           1 <1>                0.0000
      4 C4          26.8305  37.2307  39.2345 C.ar           1 <1>                0.0000
      5 C5          28.0847  37.3508  38.6329 C.ar           1 <1>                0.0000
      6 C6          28.2526  38.1909  37.4855 C.1            1 <1>                0.0000
      7 C7          28.3903  38.8797  36.5448 C.1            1 <1>                0.0000
      8 C8          29.1756  36.6501  39.1532 C.ar           1 <1>                0.0000
      9 Cl9         30.7373  36.7963  38.4095 Cl             1 <1>                0.0000
     10 C10         29.0110  35.8463  40.2623 C.ar           1 <1>                0.0000
     11 H11         25.7018  36.3288  40.8040 H              1 <1>                0.0000
     12 H12         25.9852  37.7709  38.8344 H              1 <1>                0.0000
     13 H13         28.5135  39.4957  35.7034 H              1 <1>                0.0000
     14 H14         29.8536  35.3043  40.6657 H              1 <1>                0.0000
     15 H15         26.7232  34.8259  42.3904 H              1 <1>                0.0000
     16 H16         28.3521  34.4185  42.3321 H              1 <1>                0.0000
@<TRIPOS>BOND
    1    1    2 1     
    2    1   15 1     
    3    1   16 1     
    4    2    3 ar    
    5    2   10 ar    
    6    3    4 ar    
    7    3   11 1     
    8    4    5 ar    
    9    4   12 1     
   10    5    6 1     
   11    5    8 ar    
   12    6    7 3     
   13    7   13 1     
   14    8    9 1     
   15    8   10 ar    
   16   10   14 1     
@<TRIPOS>SUBSTRUCTURE
      1 ****           1
@<TRIPOS>SET
DONOR_HYDROGENS      STATIC     ATOMS    <user>   **** ""
2 15 16
ATOM$RED        STATIC     ATOMS    COLORGROUP SYSTEM
2 15 16
@<TRIPOS>COMMENT
> <Gold.Version>
2022.2.0

> <Gold.Id.Protein>
1qkm|1qkm_protein|mol2

> <Gold.Protein.RotatedTorsions>
[  496  491  490  487 ] final  -81.86 input  -89.99 | X-H torsion

> <Gold.Protein.ActiveResidues>
 MET295  LEU298  THR299  LEU301  ALA302  GLU305  TRP335  MET336  LEU339  MET340 
 GLY342  LEU343  ARG346  PHE356  ILE373  ILE376  PHE377  LEU380  LYS471  GLY472 
 MET473  HIS475  LEU476  LEU477  ASN478  MET479  VAL484  VAL487 

> <Gold.Protein.RotatedAtoms>
   36.6827   34.6983   41.1809 H   0  0  0  0  0  0  0  0  0  0  0  0  # atno 496  bound_to 491 

> <Gold.Score>
     Score     S(PLP)   S(hbond)     S(cho)   S(metal)  DE(clash)   DE(tors)     intcor
     35.89     -33.45       0.82       0.00       0.00       0.00       0.00       0.00

> <Gold.PLP.Fitness>
35.8945

> <Gold.PLP.PLP>
-33.4465

> <Gold.PLP.part.hbond>
-0.4996

> <Gold.PLP.part.metal>
0.0000

> <Gold.PLP.part.buried>
-2.5918

> <Gold.PLP.part.nonpolar>
-30.7008

> <Gold.PLP.part.repulsive>
0.0820

> <Gold.PLP.ligand.clash>
0.0000

> <Gold.PLP.ligand.torsion>
0.0000

> <Gold.PLP.Chemscore.Hbond>
0.8160

> <Gold.PLP.Chemscore.CHOScore>
0.0000

> <Gold.PLP.Chemscore.Metal>
0.0000

> <Gold.Chemscore.Hbonds>
donor molecule, donor type, donor heavy atom, donor atom, acceptor molecule, acceptor atom, score
      L1  H     1    15       P1   582  0.82

> <Gold.PLP.Chemscore.Internal.Correction>
0.0000

