#       Name:                EN300-4296250_i001
#       Creating user name   aseyller
#       Creation time:       Fri Apr 21 14:05:39 2023


#       File generated by GOLD software.
#

@<TRIPOS>MOLECULE
EN300-4296250_i001|amine_1|mol2|584|dock10
    16    16     1
SMALL
USER_CHARGES


@<TRIPOS>ATOM
      1 N1          34.2160  37.0063  34.2994 N.pl3          1 <1>                0.0000
      2 C2          33.0004  37.2335  34.9455 C.ar           1 <1>                0.0000
      3 C3          32.1245  38.1971  34.4569 C.ar           1 <1>                0.0000
      4 C4          30.9230  38.4241  35.0920 C.ar           1 <1>                0.0000
      5 C5          30.5843  37.6857  36.2274 C.ar           1 <1>                0.0000
      6 C6          29.3361  37.9189  36.8892 C.1            1 <1>                0.0000
      7 C7          28.3127  38.1102  37.4318 C.1            1 <1>                0.0000
      8 C8          31.4658  36.7182  36.7162 C.ar           1 <1>                0.0000
      9 Cl9         31.0496  35.7967  38.1273 Cl             1 <1>                0.0000
     10 C10         32.6649  36.4923  36.0725 C.ar           1 <1>                0.0000
     11 H11         32.3867  38.7686  33.5788 H              1 <1>                0.0000
     12 H12         30.2438  39.1729  34.7118 H              1 <1>                0.0000
     13 H13         27.3974  38.2813  37.9171 H              1 <1>                0.0000
     14 H14         33.3470  35.7446  36.4492 H              1 <1>                0.0000
     15 H15         34.4494  37.5200  33.5105 H              1 <1>                0.0000
     16 H16         34.8294  36.3371  34.6415 H              1 <1>                0.0000
@<TRIPOS>BOND
    1    1    2 1     
    2    1   15 1     
    3    1   16 1     
    4    2    3 ar    
    5    2   10 ar    
    6    3    4 ar    
    7    3   11 1     
    8    4    5 ar    
    9    4   12 1     
   10    5    6 1     
   11    5    8 ar    
   12    6    7 3     
   13    7   13 1     
   14    8    9 1     
   15    8   10 ar    
   16   10   14 1     
@<TRIPOS>SUBSTRUCTURE
      1 ****           1
@<TRIPOS>SET
DONOR_HYDROGENS      STATIC     ATOMS    <user>   **** ""
2 15 16
ATOM$RED        STATIC     ATOMS    COLORGROUP SYSTEM
2 15 16
@<TRIPOS>COMMENT
> <Gold.Version>
2022.2.0

> <Gold.Id.Protein>
1qkm|1qkm_protein|mol2

> <Gold.Protein.RotatedTorsions>
[  496  491  490  487 ] final -116.50 input  -89.99 | X-H torsion

> <Gold.Protein.ActiveResidues>
 MET295  LEU298  THR299  LEU301  ALA302  GLU305  TRP335  MET336  LEU339  MET340 
 GLY342  LEU343  ARG346  PHE356  ILE373  ILE376  PHE377  LEU380  LYS471  GLY472 
 MET473  HIS475  LEU476  LEU477  ASN478  MET479  VAL484  VAL487 

> <Gold.Protein.RotatedAtoms>
   36.9967   34.3998   40.8235 H   0  0  0  0  0  0  0  0  0  0  0  0  # atno 496  bound_to 491 

> <Gold.Score>
     Score     S(PLP)   S(hbond)     S(cho)   S(metal)  DE(clash)   DE(tors)     intcor
     36.68     -33.68       1.00       0.00       0.00       0.00       0.00       0.00

> <Gold.PLP.Fitness>
36.6849

> <Gold.PLP.PLP>
-33.6849

> <Gold.PLP.part.hbond>
-0.7330

> <Gold.PLP.part.metal>
0.0000

> <Gold.PLP.part.buried>
-2.2648

> <Gold.PLP.part.nonpolar>
-30.7691

> <Gold.PLP.part.repulsive>
0.1167

> <Gold.PLP.ligand.clash>
0.0000

> <Gold.PLP.ligand.torsion>
0.0000

> <Gold.PLP.Chemscore.Hbond>
1.0000

> <Gold.PLP.Chemscore.CHOScore>
0.0000

> <Gold.PLP.Chemscore.Metal>
0.0000

> <Gold.Chemscore.Hbonds>
donor molecule, donor type, donor heavy atom, donor atom, acceptor molecule, acceptor atom, score
      L1  H     1    15       P1  3229  1.00

> <Gold.PLP.Chemscore.Internal.Correction>
0.0000

