#       Name:                EN300-4296250_i001
#       Creating user name   aseyller
#       Creation time:       Fri Apr 21 14:05:39 2023


#       File generated by GOLD software.
#

@<TRIPOS>MOLECULE
EN300-4296250_i001|amine_1|mol2|584|dock6
    16    16     1
SMALL
USER_CHARGES


@<TRIPOS>ATOM
      1 N1          31.5623  36.6055  37.5711 N.pl3          1 <1>                0.0000
      2 C2          30.2993  36.7308  38.1507 C.ar           1 <1>                0.0000
      3 C3          29.2873  37.4002  37.4710 C.ar           1 <1>                0.0000
      4 C4          28.0387  37.5257  38.0399 C.ar           1 <1>                0.0000
      5 C5          27.7891  36.9799  39.3005 C.ar           1 <1>                0.0000
      6 C6          26.4923  37.1081  39.8940 C.1            1 <1>                0.0000
      7 C7          25.4291  37.2133  40.3808 C.1            1 <1>                0.0000
      8 C8          28.8073  36.3078  39.9812 C.ar           1 <1>                0.0000
      9 Cl9         28.5024  35.6267  41.5486 Cl             1 <1>                0.0000
     10 C10         30.0537  36.1812  39.4036 C.ar           1 <1>                0.0000
     11 H11         29.4806  37.8228  36.4961 H              1 <1>                0.0000
     12 H12         27.2537  38.0461  37.5112 H              1 <1>                0.0000
     13 H13         24.4782  37.3073  40.8160 H              1 <1>                0.0000
     14 H14         30.8415  35.6616  39.9287 H              1 <1>                0.0000
     15 H15         31.7338  36.9850  36.6952 H              1 <1>                0.0000
     16 H16         32.2700  36.1421  38.0460 H              1 <1>                0.0000
@<TRIPOS>BOND
    1    1    2 1     
    2    1   15 1     
    3    1   16 1     
    4    2    3 ar    
    5    2   10 ar    
    6    3    4 ar    
    7    3   11 1     
    8    4    5 ar    
    9    4   12 1     
   10    5    6 1     
   11    5    8 ar    
   12    6    7 3     
   13    7   13 1     
   14    8    9 1     
   15    8   10 ar    
   16   10   14 1     
@<TRIPOS>SUBSTRUCTURE
      1 ****           1
@<TRIPOS>SET
DONOR_HYDROGENS      STATIC     ATOMS    <user>   **** ""
2 15 16
ATOM$RED        STATIC     ATOMS    COLORGROUP SYSTEM
2 15 16
@<TRIPOS>COMMENT
> <Gold.Version>
2022.2.0

> <Gold.Id.Protein>
1qkm|1qkm_protein|mol2

> <Gold.Protein.RotatedTorsions>
[  496  491  490  487 ] final  -80.26 input  -89.99 | X-H torsion

> <Gold.Protein.ActiveResidues>
 MET295  LEU298  THR299  LEU301  ALA302  GLU305  TRP335  MET336  LEU339  MET340 
 GLY342  LEU343  ARG346  PHE356  ILE373  ILE376  PHE377  LEU380  LYS471  GLY472 
 MET473  HIS475  LEU476  LEU477  ASN478  MET479  VAL484  VAL487 

> <Gold.Protein.RotatedAtoms>
   36.6683   34.7051   41.2018 H   0  0  0  0  0  0  0  0  0  0  0  0  # atno 496  bound_to 491 

> <Gold.Score>
     Score     S(PLP)   S(hbond)     S(cho)   S(metal)  DE(clash)   DE(tors)     intcor
     35.74     -35.74       0.00       0.00       0.00       0.00       0.00       0.00

> <Gold.PLP.Fitness>
35.7406

> <Gold.PLP.PLP>
-35.7406

> <Gold.PLP.part.hbond>
0.0000

> <Gold.PLP.part.metal>
0.0000

> <Gold.PLP.part.buried>
-1.6749

> <Gold.PLP.part.nonpolar>
-34.4897

> <Gold.PLP.part.repulsive>
0.0000

> <Gold.PLP.ligand.clash>
0.0000

> <Gold.PLP.ligand.torsion>
0.0000

> <Gold.PLP.Chemscore.Hbond>
0.0000

> <Gold.PLP.Chemscore.CHOScore>
0.0000

> <Gold.PLP.Chemscore.Metal>
0.0000

> <Gold.PLP.Chemscore.Internal.Correction>
0.0000

