#       Name:                EN300-4296250_i001
#       Creating user name   aseyller
#       Creation time:       Fri Apr 21 14:05:39 2023


#       File generated by GOLD software.
#

@<TRIPOS>MOLECULE
EN300-4296250_i001|amine_1|mol2|584|dock8
    16    16     1
SMALL
USER_CHARGES


@<TRIPOS>ATOM
      1 N1          34.1768  36.9989  34.3024 N.pl3          1 <1>                0.0000
      2 C2          33.2163  37.0002  35.3145 C.ar           1 <1>                0.0000
      3 C3          33.1419  35.9316  36.2017 C.ar           1 <1>                0.0000
      4 C4          32.1951  35.9294  37.2027 C.ar           1 <1>                0.0000
      5 C5          31.3092  37.0013  37.3265 C.ar           1 <1>                0.0000
      6 C6          30.3245  37.0021  38.3661 C.1            1 <1>                0.0000
      7 C7          29.5172  37.0027  39.2185 C.1            1 <1>                0.0000
      8 C8          31.3860  38.0735  36.4341 C.ar           1 <1>                0.0000
      9 Cl9         30.2874  39.4093  36.5838 Cl             1 <1>                0.0000
     10 C10         32.3398  38.0719  35.4374 C.ar           1 <1>                0.0000
     11 H11         33.8270  35.1022  36.1056 H              1 <1>                0.0000
     12 H12         32.1381  35.0988  37.8908 H              1 <1>                0.0000
     13 H13         28.7952  37.0032  39.9809 H              1 <1>                0.0000
     14 H14         32.4004  38.9003  34.7472 H              1 <1>                0.0000
     15 H15         34.7916  36.2535  34.2181 H              1 <1>                0.0000
     16 H16         34.2271  37.7418  33.6807 H              1 <1>                0.0000
@<TRIPOS>BOND
    1    1    2 1     
    2    1   15 1     
    3    1   16 1     
    4    2    3 ar    
    5    2   10 ar    
    6    3    4 ar    
    7    3   11 1     
    8    4    5 ar    
    9    4   12 1     
   10    5    6 1     
   11    5    8 ar    
   12    6    7 3     
   13    7   13 1     
   14    8    9 1     
   15    8   10 ar    
   16   10   14 1     
@<TRIPOS>SUBSTRUCTURE
      1 ****           1
@<TRIPOS>SET
DONOR_HYDROGENS      STATIC     ATOMS    <user>   **** ""
2 15 16
ATOM$RED        STATIC     ATOMS    COLORGROUP SYSTEM
2 15 16
@<TRIPOS>COMMENT
> <Gold.Version>
2022.2.0

> <Gold.Id.Protein>
1qkm|1qkm_protein|mol2

> <Gold.Protein.RotatedTorsions>
[  496  491  490  487 ] final -130.67 input  -89.99 | X-H torsion

> <Gold.Protein.ActiveResidues>
 MET295  LEU298  THR299  LEU301  ALA302  GLU305  TRP335  MET336  LEU339  MET340 
 GLY342  LEU343  ARG346  PHE356  ILE373  ILE376  PHE377  LEU380  LYS471  GLY472 
 MET473  HIS475  LEU476  LEU477  ASN478  MET479  VAL484  VAL487 

> <Gold.Protein.RotatedAtoms>
   37.1097   34.2112   40.7474 H   0  0  0  0  0  0  0  0  0  0  0  0  # atno 496  bound_to 491 

> <Gold.Score>
     Score     S(PLP)   S(hbond)     S(cho)   S(metal)  DE(clash)   DE(tors)     intcor
     36.43     -34.22       0.74       0.00       0.00       0.00       0.00       0.00

> <Gold.PLP.Fitness>
36.4284

> <Gold.PLP.PLP>
-34.2204

> <Gold.PLP.part.hbond>
-0.8195

> <Gold.PLP.part.metal>
0.0000

> <Gold.PLP.part.buried>
-2.3389

> <Gold.PLP.part.nonpolar>
-31.4171

> <Gold.PLP.part.repulsive>
0.1151

> <Gold.PLP.ligand.clash>
0.0000

> <Gold.PLP.ligand.torsion>
0.0000

> <Gold.PLP.Chemscore.Hbond>
0.7360

> <Gold.PLP.Chemscore.CHOScore>
0.0000

> <Gold.PLP.Chemscore.Metal>
0.0000

> <Gold.Chemscore.Hbonds>
donor molecule, donor type, donor heavy atom, donor atom, acceptor molecule, acceptor atom, score
      L1  H     1    16       P1  3229  0.74

> <Gold.PLP.Chemscore.Internal.Correction>
0.0000

