#       Name:                EN300-4296250_i001
#       Creating user name   aseyller
#       Creation time:       Fri Apr 21 14:05:41 2023


#       File generated by GOLD software.
#

@<TRIPOS>MOLECULE
EN300-4296250_i001|amine_1|mol2|584|dock20
    16    16     1
SMALL
USER_CHARGES


@<TRIPOS>ATOM
      1 N1          32.4261  36.4388  37.6261 N.pl3          1 <1>                0.0000
      2 C2          31.0758  36.6422  37.9129 C.ar           1 <1>                0.0000
      3 C3          30.2692  37.3236  37.0076 C.ar           1 <1>                0.0000
      4 C4          28.9353  37.5260  37.2871 C.ar           1 <1>                0.0000
      5 C5          28.3927  37.0463  38.4807 C.ar           1 <1>                0.0000
      6 C6          27.0066  37.2546  38.7737 C.1            1 <1>                0.0000
      7 C7          25.8701  37.4254  39.0140 C.1            1 <1>                0.0000
      8 C8          29.2049  36.3621  39.3884 C.ar           1 <1>                0.0000
      9 Cl9         28.5354  35.7630  40.8738 Cl             1 <1>                0.0000
     10 C10         30.5385  36.1583  39.1000 C.ar           1 <1>                0.0000
     11 H11         30.6891  37.6950  36.0845 H              1 <1>                0.0000
     12 H12         28.3100  38.0556  36.5835 H              1 <1>                0.0000
     13 H13         24.8538  37.5782  39.2288 H              1 <1>                0.0000
     14 H14         31.1674  35.6292  39.8007 H              1 <1>                0.0000
     15 H15         32.8012  36.7725  36.7962 H              1 <1>                0.0000
     16 H16         32.9905  35.9671  38.2585 H              1 <1>                0.0000
@<TRIPOS>BOND
    1    1    2 1     
    2    1   15 1     
    3    1   16 1     
    4    2    3 ar    
    5    2   10 ar    
    6    3    4 ar    
    7    3   11 1     
    8    4    5 ar    
    9    4   12 1     
   10    5    6 1     
   11    5    8 ar    
   12    6    7 3     
   13    7   13 1     
   14    8    9 1     
   15    8   10 ar    
   16   10   14 1     
@<TRIPOS>SUBSTRUCTURE
      1 ****           1
@<TRIPOS>SET
DONOR_HYDROGENS      STATIC     ATOMS    <user>   **** ""
2 15 16
ATOM$RED        STATIC     ATOMS    COLORGROUP SYSTEM
2 15 16
@<TRIPOS>COMMENT
> <Gold.Version>
2022.2.0

> <Gold.Id.Protein>
1qkm|1qkm_protein|mol2

> <Gold.Protein.RotatedTorsions>
[  496  491  490  487 ] final  103.59 input  -89.99 | X-H torsion

> <Gold.Protein.ActiveResidues>
 MET295  LEU298  THR299  LEU301  ALA302  GLU305  TRP335  MET336  LEU339  MET340 
 GLY342  LEU343  ARG346  PHE356  ILE373  ILE376  PHE377  LEU380  LYS471  GLY472 
 MET473  HIS475  LEU476  LEU477  ASN478  MET479  VAL484  VAL487 

> <Gold.Protein.RotatedAtoms>
   36.9437   32.9564   41.8501 H   0  0  0  0  0  0  0  0  0  0  0  0  # atno 496  bound_to 491 

> <Gold.Score>
     Score     S(PLP)   S(hbond)     S(cho)   S(metal)  DE(clash)   DE(tors)     intcor
     35.17     -35.17       0.00       0.00       0.00       0.00       0.00       0.00

> <Gold.PLP.Fitness>
35.1655

> <Gold.PLP.PLP>
-35.1655

> <Gold.PLP.part.hbond>
0.0000

> <Gold.PLP.part.metal>
0.0000

> <Gold.PLP.part.buried>
-2.0199

> <Gold.PLP.part.nonpolar>
-33.9613

> <Gold.PLP.part.repulsive>
0.0213

> <Gold.PLP.ligand.clash>
0.0000

> <Gold.PLP.ligand.torsion>
0.0000

> <Gold.PLP.Chemscore.Hbond>
0.0000

> <Gold.PLP.Chemscore.CHOScore>
0.0000

> <Gold.PLP.Chemscore.Metal>
0.0000

> <Gold.PLP.Chemscore.Internal.Correction>
0.0000

