#       Name:                EN300-4296250_i001
#       Creating user name   aseyller
#       Creation time:       Fri Apr 21 14:05:38 2023


#       File generated by GOLD software.
#

@<TRIPOS>MOLECULE
EN300-4296250_i001|amine_1|mol2|584|dock4
    16    16     1
SMALL
USER_CHARGES


@<TRIPOS>ATOM
      1 N1          26.0487  35.7937  41.3533 N.pl3          1 <1>                0.0000
      2 C2          27.0236  36.2492  40.4651 C.ar           1 <1>                0.0000
      3 C3          28.3394  35.8187  40.5985 C.ar           1 <1>                0.0000
      4 C4          29.3048  36.2660  39.7232 C.ar           1 <1>                0.0000
      5 C5          28.9616  37.1527  38.7008 C.ar           1 <1>                0.0000
      6 C6          29.9626  37.6189  37.7891 C.1            1 <1>                0.0000
      7 C7          30.7834  38.0012  37.0417 C.1            1 <1>                0.0000
      8 C8          27.6392  37.5836  38.5687 C.ar           1 <1>                0.0000
      9 Cl9         27.2069  38.6856  37.2990 Cl             1 <1>                0.0000
     10 C10         26.6765  37.1277  39.4454 C.ar           1 <1>                0.0000
     11 H11         28.6048  35.1331  41.3897 H              1 <1>                0.0000
     12 H12         30.3263  35.9312  39.8280 H              1 <1>                0.0000
     13 H13         31.5174  38.3430  36.3733 H              1 <1>                0.0000
     14 H14         25.6539  37.4599  39.3442 H              1 <1>                0.0000
     15 H15         26.2889  35.1774  42.0627 H              1 <1>                0.0000
     16 H16         25.1314  36.0963  41.2636 H              1 <1>                0.0000
@<TRIPOS>BOND
    1    1    2 1     
    2    1   15 1     
    3    1   16 1     
    4    2    3 ar    
    5    2   10 ar    
    6    3    4 ar    
    7    3   11 1     
    8    4    5 ar    
    9    4   12 1     
   10    5    6 1     
   11    5    8 ar    
   12    6    7 3     
   13    7   13 1     
   14    8    9 1     
   15    8   10 ar    
   16   10   14 1     
@<TRIPOS>SUBSTRUCTURE
      1 ****           1
@<TRIPOS>SET
DONOR_HYDROGENS      STATIC     ATOMS    <user>   **** ""
2 15 16
ATOM$RED        STATIC     ATOMS    COLORGROUP SYSTEM
2 15 16
@<TRIPOS>COMMENT
> <Gold.Version>
2022.2.0

> <Gold.Id.Protein>
1qkm|1qkm_protein|mol2

> <Gold.Protein.RotatedTorsions>
[  496  491  490  487 ] final  -30.05 input  -89.99 | X-H torsion

> <Gold.Protein.ActiveResidues>
 MET295  LEU298  THR299  LEU301  ALA302  GLU305  TRP335  MET336  LEU339  MET340 
 GLY342  LEU343  ARG346  PHE356  ILE373  ILE376  PHE377  LEU380  LYS471  GLY472 
 MET473  HIS475  LEU476  LEU477  ASN478  MET479  VAL484  VAL487 

> <Gold.Protein.RotatedAtoms>
   36.3151   34.5715   41.9075 H   0  0  0  0  0  0  0  0  0  0  0  0  # atno 496  bound_to 491 

> <Gold.Score>
     Score     S(PLP)   S(hbond)     S(cho)   S(metal)  DE(clash)   DE(tors)     intcor
     37.47     -34.47       1.00       0.00       0.00       0.00       0.00       0.00

> <Gold.PLP.Fitness>
37.4691

> <Gold.PLP.PLP>
-34.4691

> <Gold.PLP.part.hbond>
-1.0000

> <Gold.PLP.part.metal>
0.0000

> <Gold.PLP.part.buried>
-2.2333

> <Gold.PLP.part.nonpolar>
-31.2100

> <Gold.PLP.part.repulsive>
0.0506

> <Gold.PLP.ligand.clash>
0.0000

> <Gold.PLP.ligand.torsion>
0.0000

> <Gold.PLP.Chemscore.Hbond>
1.0000

> <Gold.PLP.Chemscore.CHOScore>
0.0000

> <Gold.PLP.Chemscore.Metal>
0.0000

> <Gold.Chemscore.Hbonds>
donor molecule, donor type, donor heavy atom, donor atom, acceptor molecule, acceptor atom, score
      L1  H     1    15       P1   582  1.00

> <Gold.PLP.Chemscore.Internal.Correction>
0.0000

