#       Name:                EN300-4296250_i001
#       Creating user name   aseyller
#       Creation time:       Fri Apr 21 14:05:41 2023


#       File generated by GOLD software.
#

@<TRIPOS>MOLECULE
EN300-4296250_i001|amine_1|mol2|584|dock17
    16    16     1
SMALL
USER_CHARGES


@<TRIPOS>ATOM
      1 N1          24.5932  36.7319  41.1397 N.pl3          1 <1>                0.0000
      2 C2          25.8906  36.6074  40.6418 C.ar           1 <1>                0.0000
      3 C3          26.0948  36.3978  39.2821 C.ar           1 <1>                0.0000
      4 C4          27.3746  36.2747  38.7866 C.ar           1 <1>                0.0000
      5 C5          28.4678  36.3605  39.6507 C.ar           1 <1>                0.0000
      6 C6          29.7990  36.2335  39.1386 C.1            1 <1>                0.0000
      7 C7          30.8904  36.1294  38.7186 C.1            1 <1>                0.0000
      8 C8          28.2601  36.5711  41.0161 C.ar           1 <1>                0.0000
      9 Cl9         29.6158  36.6792  42.0950 Cl             1 <1>                0.0000
     10 C10         26.9763  36.6988  41.5048 C.ar           1 <1>                0.0000
     11 H11         25.2491  36.3310  38.6137 H              1 <1>                0.0000
     12 H12         27.5319  36.1116  37.7305 H              1 <1>                0.0000
     13 H13         31.8665  36.0363  38.3431 H              1 <1>                0.0000
     14 H14         26.8145  36.8619  42.5601 H              1 <1>                0.0000
     15 H15         23.8349  36.6724  40.5378 H              1 <1>                0.0000
     16 H16         24.4494  36.8743  42.0884 H              1 <1>                0.0000
@<TRIPOS>BOND
    1    1    2 1     
    2    1   15 1     
    3    1   16 1     
    4    2    3 ar    
    5    2   10 ar    
    6    3    4 ar    
    7    3   11 1     
    8    4    5 ar    
    9    4   12 1     
   10    5    6 1     
   11    5    8 ar    
   12    6    7 3     
   13    7   13 1     
   14    8    9 1     
   15    8   10 ar    
   16   10   14 1     
@<TRIPOS>SUBSTRUCTURE
      1 ****           1
@<TRIPOS>SET
DONOR_HYDROGENS      STATIC     ATOMS    <user>   **** ""
2 15 16
ATOM$RED        STATIC     ATOMS    COLORGROUP SYSTEM
2 15 16
@<TRIPOS>COMMENT
> <Gold.Version>
2022.2.0

> <Gold.Id.Protein>
1qkm|1qkm_protein|mol2

> <Gold.Protein.RotatedTorsions>
[  496  491  490  487 ] final  -84.75 input  -89.99 | X-H torsion

> <Gold.Protein.ActiveResidues>
 MET295  LEU298  THR299  LEU301  ALA302  GLU305  TRP335  MET336  LEU339  MET340 
 GLY342  LEU343  ARG346  PHE356  ILE373  ILE376  PHE377  LEU380  LYS471  GLY472 
 MET473  HIS475  LEU476  LEU477  ASN478  MET479  VAL484  VAL487 

> <Gold.Protein.RotatedAtoms>
   36.7090   34.6843   41.1439 H   0  0  0  0  0  0  0  0  0  0  0  0  # atno 496  bound_to 491 

> <Gold.Score>
     Score     S(PLP)   S(hbond)     S(cho)   S(metal)  DE(clash)   DE(tors)     intcor
     39.28     -36.28       1.00       0.00       0.00       0.00       0.00       0.00

> <Gold.PLP.Fitness>
39.2760

> <Gold.PLP.PLP>
-36.2760

> <Gold.PLP.part.hbond>
-1.0000

> <Gold.PLP.part.metal>
0.0000

> <Gold.PLP.part.buried>
0.5241

> <Gold.PLP.part.nonpolar>
-37.5161

> <Gold.PLP.part.repulsive>
1.4192

> <Gold.PLP.ligand.clash>
0.0000

> <Gold.PLP.ligand.torsion>
0.0000

> <Gold.PLP.Chemscore.Hbond>
1.0000

> <Gold.PLP.Chemscore.CHOScore>
0.0000

> <Gold.PLP.Chemscore.Metal>
0.0000

> <Gold.Chemscore.Hbonds>
donor molecule, donor type, donor heavy atom, donor atom, acceptor molecule, acceptor atom, score
      L1  H     1    15       P1  1131  1.00

> <Gold.PLP.Chemscore.Internal.Correction>
0.0000

