#       Name:                EN300-4296250_i001
#       Creating user name   aseyller
#       Creation time:       Fri Apr 21 14:05:40 2023


#       File generated by GOLD software.
#

@<TRIPOS>MOLECULE
EN300-4296250_i001|amine_1|mol2|584|dock14
    16    16     1
SMALL
USER_CHARGES


@<TRIPOS>ATOM
      1 N1          33.5054  36.1000  35.7012 N.pl3          1 <1>                0.0000
      2 C2          32.5320  36.1111  36.7008 C.ar           1 <1>                0.0000
      3 C3          32.4513  35.0552  37.6024 C.ar           1 <1>                0.0000
      4 C4          31.4917  35.0628  38.5911 C.ar           1 <1>                0.0000
      5 C5          30.5993  36.1321  38.6880 C.ar           1 <1>                0.0000
      6 C6          29.6013  36.1432  39.7148 C.1            1 <1>                0.0000
      7 C7          28.7831  36.1522  40.5568 C.1            1 <1>                0.0000
      8 C8          30.6825  37.1917  37.7812 C.ar           1 <1>                0.0000
      9 Cl9         29.5757  38.5241  37.8973 Cl             1 <1>                0.0000
     10 C10         31.6490  37.1802  36.7969 C.ar           1 <1>                0.0000
     11 H11         33.1414  34.2279  37.5272 H              1 <1>                0.0000
     12 H12         31.4297  34.2421  39.2905 H              1 <1>                0.0000
     13 H13         28.0513  36.1603  41.3097 H              1 <1>                0.0000
     14 H14         31.7145  37.9988  36.0955 H              1 <1>                0.0000
     15 H15         34.1248  35.3564  35.6356 H              1 <1>                0.0000
     16 H16         33.5602  36.8340  35.0694 H              1 <1>                0.0000
@<TRIPOS>BOND
    1    1    2 1     
    2    1   15 1     
    3    1   16 1     
    4    2    3 ar    
    5    2   10 ar    
    6    3    4 ar    
    7    3   11 1     
    8    4    5 ar    
    9    4   12 1     
   10    5    6 1     
   11    5    8 ar    
   12    6    7 3     
   13    7   13 1     
   14    8    9 1     
   15    8   10 ar    
   16   10   14 1     
@<TRIPOS>SUBSTRUCTURE
      1 ****           1
@<TRIPOS>SET
DONOR_HYDROGENS      STATIC     ATOMS    <user>   **** ""
2 15 16
ATOM$RED        STATIC     ATOMS    COLORGROUP SYSTEM
2 15 16
@<TRIPOS>COMMENT
> <Gold.Version>
2022.2.0

> <Gold.Id.Protein>
1qkm|1qkm_protein|mol2

> <Gold.Protein.RotatedTorsions>
[  496  491  490  487 ] final  141.34 input  -89.99 | X-H torsion

> <Gold.Protein.ActiveResidues>
 MET295  LEU298  THR299  LEU301  ALA302  GLU305  TRP335  MET336  LEU339  MET340 
 GLY342  LEU343  ARG346  PHE356  ILE373  ILE376  PHE377  LEU380  LYS471  GLY472 
 MET473  HIS475  LEU476  LEU477  ASN478  MET479  VAL484  VAL487 

> <Gold.Protein.RotatedAtoms>
   37.2216   33.0345   41.3125 H   0  0  0  0  0  0  0  0  0  0  0  0  # atno 496  bound_to 491 

> <Gold.Score>
     Score     S(PLP)   S(hbond)     S(cho)   S(metal)  DE(clash)   DE(tors)     intcor
     34.45     -34.45       0.00       0.00       0.00       0.00       0.00       0.00

> <Gold.PLP.Fitness>
34.4502

> <Gold.PLP.PLP>
-34.4502

> <Gold.PLP.part.hbond>
0.0000

> <Gold.PLP.part.metal>
0.0000

> <Gold.PLP.part.buried>
-2.0890

> <Gold.PLP.part.nonpolar>
-32.4105

> <Gold.PLP.part.repulsive>
0.0401

> <Gold.PLP.ligand.clash>
0.0000

> <Gold.PLP.ligand.torsion>
0.0000

> <Gold.PLP.Chemscore.Hbond>
0.0000

> <Gold.PLP.Chemscore.CHOScore>
0.0000

> <Gold.PLP.Chemscore.Metal>
0.0000

> <Gold.PLP.Chemscore.Internal.Correction>
0.0000

