#       Name:                EN300-4296250_i001
#       Creating user name   aseyller
#       Creation time:       Fri Apr 21 14:05:40 2023


#       File generated by GOLD software.
#

@<TRIPOS>MOLECULE
EN300-4296250_i001|amine_1|mol2|584|dock11
    16    16     1
SMALL
USER_CHARGES


@<TRIPOS>ATOM
      1 N1          26.2748  35.7880  41.2755 N.pl3          1 <1>                0.0000
      2 C2          27.0924  36.1004  40.1889 C.ar           1 <1>                0.0000
      3 C3          26.5759  36.8189  39.1158 C.ar           1 <1>                0.0000
      4 C4          27.3802  37.1296  38.0412 C.ar           1 <1>                0.0000
      5 C5          28.7157  36.7227  38.0296 C.ar           1 <1>                0.0000
      6 C6          29.5543  37.0447  36.9144 C.1            1 <1>                0.0000
      7 C7          30.2418  37.3087  36.0001 C.1            1 <1>                0.0000
      8 C8          29.2323  36.0012  39.1086 C.ar           1 <1>                0.0000
      9 Cl9         30.8923  35.4932  39.0997 Cl             1 <1>                0.0000
     10 C10         28.4228  35.6979  40.1838 C.ar           1 <1>                0.0000
     11 H11         25.5427  37.1332  39.1247 H              1 <1>                0.0000
     12 H12         26.9779  37.6872  37.2083 H              1 <1>                0.0000
     13 H13         30.8567  37.5448  35.1823 H              1 <1>                0.0000
     14 H14         28.8210  35.1405  41.0187 H              1 <1>                0.0000
     15 H15         25.3473  36.0718  41.2820 H              1 <1>                0.0000
     16 H16         26.6329  35.2836  42.0227 H              1 <1>                0.0000
@<TRIPOS>BOND
    1    1    2 1     
    2    1   15 1     
    3    1   16 1     
    4    2    3 ar    
    5    2   10 ar    
    6    3    4 ar    
    7    3   11 1     
    8    4    5 ar    
    9    4   12 1     
   10    5    6 1     
   11    5    8 ar    
   12    6    7 3     
   13    7   13 1     
   14    8    9 1     
   15    8   10 ar    
   16   10   14 1     
@<TRIPOS>SUBSTRUCTURE
      1 ****           1
@<TRIPOS>SET
DONOR_HYDROGENS      STATIC     ATOMS    <user>   **** ""
2 15 16
ATOM$RED        STATIC     ATOMS    COLORGROUP SYSTEM
2 15 16
@<TRIPOS>COMMENT
> <Gold.Version>
2022.2.0

> <Gold.Id.Protein>
1qkm|1qkm_protein|mol2

> <Gold.Protein.RotatedTorsions>
[  496  491  490  487 ] final  -81.89 input  -89.99 | X-H torsion

> <Gold.Protein.ActiveResidues>
 MET295  LEU298  THR299  LEU301  ALA302  GLU305  TRP335  MET336  LEU339  MET340 
 GLY342  LEU343  ARG346  PHE356  ILE373  ILE376  PHE377  LEU380  LYS471  GLY472 
 MET473  HIS475  LEU476  LEU477  ASN478  MET479  VAL484  VAL487 

> <Gold.Protein.RotatedAtoms>
   36.6830   34.6982   41.1805 H   0  0  0  0  0  0  0  0  0  0  0  0  # atno 496  bound_to 491 

> <Gold.Score>
     Score     S(PLP)   S(hbond)     S(cho)   S(metal)  DE(clash)   DE(tors)     intcor
     35.67     -33.22       0.82       0.00       0.00       0.00       0.00       0.00

> <Gold.PLP.Fitness>
35.6723

> <Gold.PLP.PLP>
-33.2243

> <Gold.PLP.part.hbond>
-1.0000

> <Gold.PLP.part.metal>
0.0000

> <Gold.PLP.part.buried>
-1.1921

> <Gold.PLP.part.nonpolar>
-31.2594

> <Gold.PLP.part.repulsive>
0.0387

> <Gold.PLP.ligand.clash>
0.0000

> <Gold.PLP.ligand.torsion>
0.0000

> <Gold.PLP.Chemscore.Hbond>
0.8160

> <Gold.PLP.Chemscore.CHOScore>
0.0000

> <Gold.PLP.Chemscore.Metal>
0.0000

> <Gold.Chemscore.Hbonds>
donor molecule, donor type, donor heavy atom, donor atom, acceptor molecule, acceptor atom, score
      L1  H     1    16       P1   582  0.82

> <Gold.PLP.Chemscore.Internal.Correction>
0.0000

