#       Name:                EN300-4296250_i001
#       Creating user name   aseyller
#       Creation time:       Fri Apr 21 14:05:41 2023


#       File generated by GOLD software.
#

@<TRIPOS>MOLECULE
EN300-4296250_i001|amine_1|mol2|584|dock18
    16    16     1
SMALL
USER_CHARGES


@<TRIPOS>ATOM
      1 N1          29.7872  35.9959  40.2982 N.pl3          1 <1>                0.0000
      2 C2          30.2756  36.4008  39.0554 C.ar           1 <1>                0.0000
      3 C3          29.5899  37.3618  38.3200 C.ar           1 <1>                0.0000
      4 C4          30.0692  37.7644  37.0926 C.ar           1 <1>                0.0000
      5 C5          31.2449  37.2070  36.5865 C.ar           1 <1>                0.0000
      6 C6          31.7458  37.6238  35.3115 C.1            1 <1>                0.0000
      7 C7          32.1566  37.9657  34.2661 C.1            1 <1>                0.0000
      8 C8          31.9319  36.2419  37.3271 C.ar           1 <1>                0.0000
      9 Cl9         33.3946  35.5459  36.7029 Cl             1 <1>                0.0000
     10 C10         31.4493  35.8471  38.5577 C.ar           1 <1>                0.0000
     11 H11         28.6802  37.7926  38.7114 H              1 <1>                0.0000
     12 H12         29.5356  38.5104  36.5223 H              1 <1>                0.0000
     13 H13         32.5239  38.2714  33.3311 H              1 <1>                0.0000
     14 H14         31.9797  35.1014  39.1313 H              1 <1>                0.0000
     15 H15         28.9704  36.3845  40.6483 H              1 <1>                0.0000
     16 H16         30.2625  35.3230  40.8102 H              1 <1>                0.0000
@<TRIPOS>BOND
    1    1    2 1     
    2    1   15 1     
    3    1   16 1     
    4    2    3 ar    
    5    2   10 ar    
    6    3    4 ar    
    7    3   11 1     
    8    4    5 ar    
    9    4   12 1     
   10    5    6 1     
   11    5    8 ar    
   12    6    7 3     
   13    7   13 1     
   14    8    9 1     
   15    8   10 ar    
   16   10   14 1     
@<TRIPOS>SUBSTRUCTURE
      1 ****           1
@<TRIPOS>SET
DONOR_HYDROGENS      STATIC     ATOMS    <user>   **** ""
2 15 16
ATOM$RED        STATIC     ATOMS    COLORGROUP SYSTEM
2 15 16
@<TRIPOS>COMMENT
> <Gold.Version>
2022.2.0

> <Gold.Id.Protein>
1qkm|1qkm_protein|mol2

> <Gold.Protein.RotatedTorsions>
[  496  491  490  487 ] final  -45.74 input  -89.99 | X-H torsion

> <Gold.Protein.ActiveResidues>
 MET295  LEU298  THR299  LEU301  ALA302  GLU305  TRP335  MET336  LEU339  MET340 
 GLY342  LEU343  ARG346  PHE356  ILE373  ILE376  PHE377  LEU380  LYS471  GLY472 
 MET473  HIS475  LEU476  LEU477  ASN478  MET479  VAL484  VAL487 

> <Gold.Protein.RotatedAtoms>
   36.3970   34.6842   41.6910 H   0  0  0  0  0  0  0  0  0  0  0  0  # atno 496  bound_to 491 

> <Gold.Score>
     Score     S(PLP)   S(hbond)     S(cho)   S(metal)  DE(clash)   DE(tors)     intcor
     37.25     -34.75       0.83       0.00       0.00       0.00       0.00       0.00

> <Gold.PLP.Fitness>
37.2459

> <Gold.PLP.PLP>
-34.7499

> <Gold.PLP.part.hbond>
-1.0000

> <Gold.PLP.part.metal>
0.0000

> <Gold.PLP.part.buried>
-2.3554

> <Gold.PLP.part.nonpolar>
-31.6331

> <Gold.PLP.part.repulsive>
0.0574

> <Gold.PLP.ligand.clash>
0.0000

> <Gold.PLP.ligand.torsion>
0.0000

> <Gold.PLP.Chemscore.Hbond>
0.8320

> <Gold.PLP.Chemscore.CHOScore>
0.0000

> <Gold.PLP.Chemscore.Metal>
0.0000

> <Gold.Chemscore.Hbonds>
donor molecule, donor type, donor heavy atom, donor atom, acceptor molecule, acceptor atom, score
      L1  H     1    16       P1   470  0.83

> <Gold.PLP.Chemscore.Internal.Correction>
0.0000

