#       Name:                EN300-4296250_i001
#       Creating user name   aseyller
#       Creation time:       Fri Apr 21 14:05:41 2023


#       File generated by GOLD software.
#

@<TRIPOS>MOLECULE
EN300-4296250_i001|amine_1|mol2|584|dock16
    16    16     1
SMALL
USER_CHARGES


@<TRIPOS>ATOM
      1 N1          32.6213  36.8393  34.6095 N.pl3          1 <1>                0.0000
      2 C2          31.9363  36.7192  35.8191 C.ar           1 <1>                0.0000
      3 C3          31.0403  37.7085  36.2102 C.ar           1 <1>                0.0000
      4 C4          30.3616  37.5932  37.4038 C.ar           1 <1>                0.0000
      5 C5          30.5736  36.4816  38.2215 C.ar           1 <1>                0.0000
      6 C6          29.8693  36.3588  39.4622 C.1            1 <1>                0.0000
      7 C7          29.2918  36.2580  40.4794 C.1            1 <1>                0.0000
      8 C8          31.4740  35.4892  37.8264 C.ar           1 <1>                0.0000
      9 Cl9         31.7411  34.1047  38.8390 Cl             1 <1>                0.0000
     10 C10         32.1464  35.6083  36.6276 C.ar           1 <1>                0.0000
     11 H11         30.8767  38.5685  35.5778 H              1 <1>                0.0000
     12 H12         29.6664  38.3623  37.7066 H              1 <1>                0.0000
     13 H13         28.7754  36.1679  41.3892 H              1 <1>                0.0000
     14 H14         32.8424  34.8416  36.3209 H              1 <1>                0.0000
     15 H15         32.4725  37.6121  34.0425 H              1 <1>                0.0000
     16 H16         33.2493  36.1519  34.3375 H              1 <1>                0.0000
@<TRIPOS>BOND
    1    1    2 1     
    2    1   15 1     
    3    1   16 1     
    4    2    3 ar    
    5    2   10 ar    
    6    3    4 ar    
    7    3   11 1     
    8    4    5 ar    
    9    4   12 1     
   10    5    6 1     
   11    5    8 ar    
   12    6    7 3     
   13    7   13 1     
   14    8    9 1     
   15    8   10 ar    
   16   10   14 1     
@<TRIPOS>SUBSTRUCTURE
      1 ****           1
@<TRIPOS>SET
DONOR_HYDROGENS      STATIC     ATOMS    <user>   **** ""
2 15 16
ATOM$RED        STATIC     ATOMS    COLORGROUP SYSTEM
2 15 16
@<TRIPOS>COMMENT
> <Gold.Version>
2022.2.0

> <Gold.Id.Protein>
1qkm|1qkm_protein|mol2

> <Gold.Protein.RotatedTorsions>
[  496  491  490  487 ] final -159.25 input  -89.99 | X-H torsion

> <Gold.Protein.ActiveResidues>
 MET295  LEU298  THR299  LEU301  ALA302  GLU305  TRP335  MET336  LEU339  MET340 
 GLY342  LEU343  ARG346  PHE356  ILE373  ILE376  PHE377  LEU380  LYS471  GLY472 
 MET473  HIS475  LEU476  LEU477  ASN478  MET479  VAL484  VAL487 

> <Gold.Protein.RotatedAtoms>
   37.2724   33.7750   40.7444 H   0  0  0  0  0  0  0  0  0  0  0  0  # atno 496  bound_to 491 

> <Gold.Score>
     Score     S(PLP)   S(hbond)     S(cho)   S(metal)  DE(clash)   DE(tors)     intcor
     34.36     -34.36       0.00       0.00       0.00       0.00       0.00       0.00

> <Gold.PLP.Fitness>
34.3649

> <Gold.PLP.PLP>
-34.3649

> <Gold.PLP.part.hbond>
-0.4351

> <Gold.PLP.part.metal>
0.0000

> <Gold.PLP.part.buried>
-1.6769

> <Gold.PLP.part.nonpolar>
-32.3861

> <Gold.PLP.part.repulsive>
0.0529

> <Gold.PLP.ligand.clash>
0.0000

> <Gold.PLP.ligand.torsion>
0.0000

> <Gold.PLP.Chemscore.Hbond>
0.0000

> <Gold.PLP.Chemscore.CHOScore>
0.0000

> <Gold.PLP.Chemscore.Metal>
0.0000

> <Gold.PLP.Chemscore.Internal.Correction>
0.0000

