#       Name:                EN300-4296250_i001
#       Creating user name   aseyller
#       Creation time:       Fri Apr 21 14:05:40 2023


#       File generated by GOLD software.
#

@<TRIPOS>MOLECULE
EN300-4296250_i001|amine_1|mol2|584|dock12
    16    16     1
SMALL
USER_CHARGES


@<TRIPOS>ATOM
      1 N1          25.4587  36.2088  41.4369 N.pl3          1 <1>                0.0000
      2 C2          26.6863  36.2197  40.7738 C.ar           1 <1>                0.0000
      3 C3          27.7976  35.6246  41.3613 C.ar           1 <1>                0.0000
      4 C4          29.0114  35.6330  40.7094 C.ar           1 <1>                0.0000
      5 C5          29.1258  36.2397  39.4572 C.ar           1 <1>                0.0000
      6 C6          30.3858  36.2495  38.7769 C.1            1 <1>                0.0000
      7 C7          31.4189  36.2576  38.2193 C.1            1 <1>                0.0000
      8 C8          28.0080  36.8368  38.8690 C.ar           1 <1>                0.0000
      9 Cl9         28.1444  37.5921  37.3120 Cl             1 <1>                0.0000
     10 C10         26.7945  36.8202  39.5249 C.ar           1 <1>                0.0000
     11 H11         27.7092  35.1556  42.3301 H              1 <1>                0.0000
     12 H12         29.8738  35.1708  41.1668 H              1 <1>                0.0000
     13 H13         32.3429  36.2647  37.7205 H              1 <1>                0.0000
     14 H14         25.9296  37.2811  39.0712 H              1 <1>                0.0000
     15 H15         25.3811  35.7865  42.3067 H              1 <1>                0.0000
     16 H16         24.6839  36.6270  41.0299 H              1 <1>                0.0000
@<TRIPOS>BOND
    1    1    2 1     
    2    1   15 1     
    3    1   16 1     
    4    2    3 ar    
    5    2   10 ar    
    6    3    4 ar    
    7    3   11 1     
    8    4    5 ar    
    9    4   12 1     
   10    5    6 1     
   11    5    8 ar    
   12    6    7 3     
   13    7   13 1     
   14    8    9 1     
   15    8   10 ar    
   16   10   14 1     
@<TRIPOS>SUBSTRUCTURE
      1 ****           1
@<TRIPOS>SET
DONOR_HYDROGENS      STATIC     ATOMS    <user>   **** ""
2 15 16
ATOM$RED        STATIC     ATOMS    COLORGROUP SYSTEM
2 15 16
@<TRIPOS>COMMENT
> <Gold.Version>
2022.2.0

> <Gold.Id.Protein>
1qkm|1qkm_protein|mol2

> <Gold.Protein.RotatedTorsions>
[  496  491  490  487 ] final  -96.54 input  -89.99 | X-H torsion

> <Gold.Protein.ActiveResidues>
 MET295  LEU298  THR299  LEU301  ALA302  GLU305  TRP335  MET336  LEU339  MET340 
 GLY342  LEU343  ARG346  PHE356  ILE373  ILE376  PHE377  LEU380  LYS471  GLY472 
 MET473  HIS475  LEU476  LEU477  ASN478  MET479  VAL484  VAL487 

> <Gold.Protein.RotatedAtoms>
   36.8177   34.6052   41.0044 H   0  0  0  0  0  0  0  0  0  0  0  0  # atno 496  bound_to 491 

> <Gold.Score>
     Score     S(PLP)   S(hbond)     S(cho)   S(metal)  DE(clash)   DE(tors)     intcor
     39.22     -36.22       1.00       0.00       0.00       0.00       0.00       0.00

> <Gold.PLP.Fitness>
39.2160

> <Gold.PLP.PLP>
-36.2160

> <Gold.PLP.part.hbond>
-1.0000

> <Gold.PLP.part.metal>
0.0000

> <Gold.PLP.part.buried>
-0.8912

> <Gold.PLP.part.nonpolar>
-35.2438

> <Gold.PLP.part.repulsive>
0.1006

> <Gold.PLP.ligand.clash>
0.0000

> <Gold.PLP.ligand.torsion>
0.0000

> <Gold.PLP.Chemscore.Hbond>
1.0000

> <Gold.PLP.Chemscore.CHOScore>
0.0000

> <Gold.PLP.Chemscore.Metal>
0.0000

> <Gold.Chemscore.Hbonds>
donor molecule, donor type, donor heavy atom, donor atom, acceptor molecule, acceptor atom, score
      L1  H     1    15       P1   582  1.00

> <Gold.PLP.Chemscore.Internal.Correction>
0.0000

