#       Name:                EN300-4296250_i001
#       Creating user name   aseyller
#       Creation time:       Fri Apr 21 14:05:38 2023


#       File generated by GOLD software.
#

@<TRIPOS>MOLECULE
EN300-4296250_i001|amine_1|mol2|584|dock2
    16    16     1
SMALL
USER_CHARGES


@<TRIPOS>ATOM
      1 N1          25.5807  35.8175  41.5593 N.pl3          1 <1>                0.0000
      2 C2          26.3743  36.3133  40.5243 C.ar           1 <1>                0.0000
      3 C3          25.8088  37.1179  39.5407 C.ar           1 <1>                0.0000
      4 C4          26.5893  37.6097  38.5173 C.ar           1 <1>                0.0000
      5 C5          27.9498  37.3000  38.4678 C.ar           1 <1>                0.0000
      6 C6          28.7636  37.8101  37.4057 C.1            1 <1>                0.0000
      7 C7          29.4309  38.2284  36.5350 C.1            1 <1>                0.0000
      8 C8          28.5155  36.4917  39.4570 C.ar           1 <1>                0.0000
      9 Cl9         30.2067  36.1040  39.4006 Cl             1 <1>                0.0000
     10 C10         27.7294  36.0069  40.4818 C.ar           1 <1>                0.0000
     11 H11         24.7563  37.3570  39.5789 H              1 <1>                0.0000
     12 H12         26.1490  38.2340  37.7539 H              1 <1>                0.0000
     13 H13         30.0277  38.6025  35.7563 H              1 <1>                0.0000
     14 H14         28.1656  35.3823  41.2472 H              1 <1>                0.0000
     15 H15         24.6358  36.0340  41.5923 H              1 <1>                0.0000
     16 H16         25.9732  35.2532  42.2437 H              1 <1>                0.0000
@<TRIPOS>BOND
    1    1    2 1     
    2    1   15 1     
    3    1   16 1     
    4    2    3 ar    
    5    2   10 ar    
    6    3    4 ar    
    7    3   11 1     
    8    4    5 ar    
    9    4   12 1     
   10    5    6 1     
   11    5    8 ar    
   12    6    7 3     
   13    7   13 1     
   14    8    9 1     
   15    8   10 ar    
   16   10   14 1     
@<TRIPOS>SUBSTRUCTURE
      1 ****           1
@<TRIPOS>SET
DONOR_HYDROGENS      STATIC     ATOMS    <user>   **** ""
2 15 16
ATOM$RED        STATIC     ATOMS    COLORGROUP SYSTEM
2 15 16
@<TRIPOS>COMMENT
> <Gold.Version>
2022.2.0

> <Gold.Id.Protein>
1qkm|1qkm_protein|mol2

> <Gold.Protein.RotatedTorsions>
[  496  491  490  487 ] final   53.88 input  -89.99 | X-H torsion

> <Gold.Protein.ActiveResidues>
 MET295  LEU298  THR299  LEU301  ALA302  GLU305  TRP335  MET336  LEU339  MET340 
 GLY342  LEU343  ARG346  PHE356  ILE373  ILE376  PHE377  LEU380  LYS471  GLY472 
 MET473  HIS475  LEU476  LEU477  ASN478  MET479  VAL484  VAL487 

> <Gold.Protein.RotatedAtoms>
   36.5023   33.4004   42.3368 H   0  0  0  0  0  0  0  0  0  0  0  0  # atno 496  bound_to 491 

> <Gold.Score>
     Score     S(PLP)   S(hbond)     S(cho)   S(metal)  DE(clash)   DE(tors)     intcor
     40.13     -37.13       1.00       0.00       0.00       0.00       0.00       0.00

> <Gold.PLP.Fitness>
40.1311

> <Gold.PLP.PLP>
-37.1311

> <Gold.PLP.part.hbond>
-1.0000

> <Gold.PLP.part.metal>
0.0000

> <Gold.PLP.part.buried>
-2.2497

> <Gold.PLP.part.nonpolar>
-33.9792

> <Gold.PLP.part.repulsive>
0.0809

> <Gold.PLP.ligand.clash>
0.0000

> <Gold.PLP.ligand.torsion>
0.0000

> <Gold.PLP.Chemscore.Hbond>
1.0000

> <Gold.PLP.Chemscore.CHOScore>
0.0000

> <Gold.PLP.Chemscore.Metal>
0.0000

> <Gold.Chemscore.Hbonds>
donor molecule, donor type, donor heavy atom, donor atom, acceptor molecule, acceptor atom, score
      L1  H     1    16       P1   582  1.00

> <Gold.PLP.Chemscore.Internal.Correction>
0.0000

