#       Name:                EN300-4296250_i001
#       Creating user name   aseyller
#       Creation time:       Fri Apr 21 14:05:38 2023


#       File generated by GOLD software.
#

@<TRIPOS>MOLECULE
EN300-4296250_i001|amine_1|mol2|584|dock1
    16    16     1
SMALL
USER_CHARGES


@<TRIPOS>ATOM
      1 N1          24.8923  35.9049  41.5065 N.pl3          1 <1>                0.0000
      2 C2          26.0375  36.1817  40.7589 C.ar           1 <1>                0.0000
      3 C3          27.2449  35.5755  41.0892 C.ar           1 <1>                0.0000
      4 C4          28.3778  35.8460  40.3532 C.ar           1 <1>                0.0000
      5 C5          28.3135  36.7297  39.2742 C.ar           1 <1>                0.0000
      6 C6          29.4891  37.0123  38.5071 C.1            1 <1>                0.0000
      7 C7          30.4529  37.2440  37.8780 C.1            1 <1>                0.0000
      8 C8          27.0994  37.3373  38.9444 C.ar           1 <1>                0.0000
      9 Cl9         27.0136  38.4365  37.6035 Cl             1 <1>                0.0000
     10 C10         25.9677  37.0580  39.6823 C.ar           1 <1>                0.0000
     11 H11         27.2947  34.8923  41.9241 H              1 <1>                0.0000
     12 H12         29.3150  35.3750  40.6109 H              1 <1>                0.0000
     13 H13         31.3150  37.4512  37.3155 H              1 <1>                0.0000
     14 H14         25.0286  37.5268  39.4281 H              1 <1>                0.0000
     15 H15         24.9388  35.2905  42.2555 H              1 <1>                0.0000
     16 H16         24.0504  36.3301  41.2795 H              1 <1>                0.0000
@<TRIPOS>BOND
    1    1    2 1     
    2    1   15 1     
    3    1   16 1     
    4    2    3 ar    
    5    2   10 ar    
    6    3    4 ar    
    7    3   11 1     
    8    4    5 ar    
    9    4   12 1     
   10    5    6 1     
   11    5    8 ar    
   12    6    7 3     
   13    7   13 1     
   14    8    9 1     
   15    8   10 ar    
   16   10   14 1     
@<TRIPOS>SUBSTRUCTURE
      1 ****           1
@<TRIPOS>SET
DONOR_HYDROGENS      STATIC     ATOMS    <user>   **** ""
2 15 16
ATOM$RED        STATIC     ATOMS    COLORGROUP SYSTEM
2 15 16
@<TRIPOS>COMMENT
> <Gold.Version>
2022.2.0

> <Gold.Id.Protein>
1qkm|1qkm_protein|mol2

> <Gold.Protein.RotatedTorsions>
[  496  491  490  487 ] final   57.89 input  -89.99 | X-H torsion

> <Gold.Protein.ActiveResidues>
 MET295  LEU298  THR299  LEU301  ALA302  GLU305  TRP335  MET336  LEU339  MET340 
 GLY342  LEU343  ARG346  PHE356  ILE373  ILE376  PHE377  LEU380  LYS471  GLY472 
 MET473  HIS475  LEU476  LEU477  ASN478  MET479  VAL484  VAL487 

> <Gold.Protein.RotatedAtoms>
   36.5342   33.3466   42.3157 H   0  0  0  0  0  0  0  0  0  0  0  0  # atno 496  bound_to 491 

> <Gold.Score>
     Score     S(PLP)   S(hbond)     S(cho)   S(metal)  DE(clash)   DE(tors)     intcor
     41.73     -37.57       1.39       0.00       0.00       0.00       0.00       0.00

> <Gold.PLP.Fitness>
41.7338

> <Gold.PLP.PLP>
-37.5746

> <Gold.PLP.part.hbond>
-2.0000

> <Gold.PLP.part.metal>
0.0000

> <Gold.PLP.part.buried>
-1.4546

> <Gold.PLP.part.nonpolar>
-34.8280

> <Gold.PLP.part.repulsive>
0.1618

> <Gold.PLP.ligand.clash>
0.0000

> <Gold.PLP.ligand.torsion>
0.0000

> <Gold.PLP.Chemscore.Hbond>
1.3864

> <Gold.PLP.Chemscore.CHOScore>
0.0000

> <Gold.PLP.Chemscore.Metal>
0.0000

> <Gold.Chemscore.Hbonds>
donor molecule, donor type, donor heavy atom, donor atom, acceptor molecule, acceptor atom, score
      L1  H     1    15       P1   582  0.96
      L1  H     1    16       P1  1131  0.43

> <Gold.PLP.Chemscore.Internal.Correction>
0.0000

