#       Name:                EN300-4296250_i001
#       Creating user name   aseyller
#       Creation time:       Fri Apr 21 14:05:39 2023


#       File generated by GOLD software.
#

@<TRIPOS>MOLECULE
EN300-4296250_i001|amine_1|mol2|584|dock9
    16    16     1
SMALL
USER_CHARGES


@<TRIPOS>ATOM
      1 N1          33.8765  36.9526  34.4282 N.pl3          1 <1>                0.0000
      2 C2          32.9848  36.8869  35.4994 C.ar           1 <1>                0.0000
      3 C3          32.1983  37.9894  35.8161 C.ar           1 <1>                0.0000
      4 C4          31.3163  37.9282  36.8728 C.ar           1 <1>                0.0000
      5 C5          31.2120  36.7577  37.6267 C.ar           1 <1>                0.0000
      6 C6          30.2958  36.6909  38.7251 C.1            1 <1>                0.0000
      7 C7          29.5446  36.6361  39.6257 C.1            1 <1>                0.0000
      8 C8          32.0030  35.6515  37.3065 C.ar           1 <1>                0.0000
      9 Cl9         31.8769  34.1934  38.2400 Cl             1 <1>                0.0000
     10 C10         32.8803  35.7178  36.2438 C.ar           1 <1>                0.0000
     11 H11         32.2794  38.8950  35.2332 H              1 <1>                0.0000
     12 H12         30.7064  38.7852  37.1181 H              1 <1>                0.0000
     13 H13         28.8728  36.5871  40.4312 H              1 <1>                0.0000
     14 H14         33.4921  34.8633  35.9952 H              1 <1>                0.0000
     15 H15         33.9474  37.7665  33.9054 H              1 <1>                0.0000
     16 H16         34.4284  36.1856  34.2088 H              1 <1>                0.0000
@<TRIPOS>BOND
    1    1    2 1     
    2    1   15 1     
    3    1   16 1     
    4    2    3 ar    
    5    2   10 ar    
    6    3    4 ar    
    7    3   11 1     
    8    4    5 ar    
    9    4   12 1     
   10    5    6 1     
   11    5    8 ar    
   12    6    7 3     
   13    7   13 1     
   14    8    9 1     
   15    8   10 ar    
   16   10   14 1     
@<TRIPOS>SUBSTRUCTURE
      1 ****           1
@<TRIPOS>SET
DONOR_HYDROGENS      STATIC     ATOMS    <user>   **** ""
2 15 16
ATOM$RED        STATIC     ATOMS    COLORGROUP SYSTEM
2 15 16
@<TRIPOS>COMMENT
> <Gold.Version>
2022.2.0

> <Gold.Id.Protein>
1qkm|1qkm_protein|mol2

> <Gold.Protein.RotatedTorsions>
[  496  491  490  487 ] final   73.89 input  -89.99 | X-H torsion

> <Gold.Protein.ActiveResidues>
 MET295  LEU298  THR299  LEU301  ALA302  GLU305  TRP335  MET336  LEU339  MET340 
 GLY342  LEU343  ARG346  PHE356  ILE373  ILE376  PHE377  LEU380  LYS471  GLY472 
 MET473  HIS475  LEU476  LEU477  ASN478  MET479  VAL484  VAL487 

> <Gold.Protein.RotatedAtoms>
   36.6722   33.1583   42.1956 H   0  0  0  0  0  0  0  0  0  0  0  0  # atno 496  bound_to 491 

> <Gold.Score>
     Score     S(PLP)   S(hbond)     S(cho)   S(metal)  DE(clash)   DE(tors)     intcor
     37.69     -35.77       0.64       0.00       0.00       0.00       0.00       0.00

> <Gold.PLP.Fitness>
37.6863

> <Gold.PLP.PLP>
-35.7663

> <Gold.PLP.part.hbond>
-1.0000

> <Gold.PLP.part.metal>
0.0000

> <Gold.PLP.part.buried>
-2.8334

> <Gold.PLP.part.nonpolar>
-31.8979

> <Gold.PLP.part.repulsive>
0.0941

> <Gold.PLP.ligand.clash>
0.0000

> <Gold.PLP.ligand.torsion>
0.0000

> <Gold.PLP.Chemscore.Hbond>
0.6400

> <Gold.PLP.Chemscore.CHOScore>
0.0000

> <Gold.PLP.Chemscore.Metal>
0.0000

> <Gold.Chemscore.Hbonds>
donor molecule, donor type, donor heavy atom, donor atom, acceptor molecule, acceptor atom, score
      L1  H     1    15       P1  3229  0.64

> <Gold.PLP.Chemscore.Internal.Correction>
0.0000

