#       Name:                EN300-4296250_i001
#       Creating user name   aseyller
#       Creation time:       Fri Apr 21 14:05:38 2023


#       File generated by GOLD software.
#

@<TRIPOS>MOLECULE
EN300-4296250_i001|amine_1|mol2|584|dock3
    16    16     1
SMALL
USER_CHARGES


@<TRIPOS>ATOM
      1 N1          33.0084  38.5164  34.3004 N.pl3          1 <1>                0.0000
      2 C2          32.7406  37.5186  35.2381 C.ar           1 <1>                0.0000
      3 C3          33.5660  36.4020  35.3182 C.ar           1 <1>                0.0000
      4 C4          33.3049  35.4148  36.2432 C.ar           1 <1>                0.0000
      5 C5          32.2103  35.5355  37.1013 C.ar           1 <1>                0.0000
      6 C6          31.9368  34.5114  38.0641 C.1            1 <1>                0.0000
      7 C7          31.7124  33.6718  38.8534 C.1            1 <1>                0.0000
      8 C8          31.3827  36.6581  37.0190 C.ar           1 <1>                0.0000
      9 Cl9         30.0206  36.8137  38.0840 Cl             1 <1>                0.0000
     10 C10         31.6528  37.6454  36.0941 C.ar           1 <1>                0.0000
     11 H11         34.4125  36.3084  34.6540 H              1 <1>                0.0000
     12 H12         33.9464  34.5480  36.3041 H              1 <1>                0.0000
     13 H13         31.5119  32.9208  39.5593 H              1 <1>                0.0000
     14 H14         31.0140  38.5138  36.0297 H              1 <1>                0.0000
     15 H15         33.7696  38.4309  33.7052 H              1 <1>                0.0000
     16 H16         32.4312  39.2937  34.2410 H              1 <1>                0.0000
@<TRIPOS>BOND
    1    1    2 1     
    2    1   15 1     
    3    1   16 1     
    4    2    3 ar    
    5    2   10 ar    
    6    3    4 ar    
    7    3   11 1     
    8    4    5 ar    
    9    4   12 1     
   10    5    6 1     
   11    5    8 ar    
   12    6    7 3     
   13    7   13 1     
   14    8    9 1     
   15    8   10 ar    
   16   10   14 1     
@<TRIPOS>SUBSTRUCTURE
      1 ****           1
@<TRIPOS>SET
DONOR_HYDROGENS      STATIC     ATOMS    <user>   **** ""
2 15 16
ATOM$RED        STATIC     ATOMS    COLORGROUP SYSTEM
2 15 16
@<TRIPOS>COMMENT
> <Gold.Version>
2022.2.0

> <Gold.Id.Protein>
1qkm|1qkm_protein|mol2

> <Gold.Protein.RotatedTorsions>
[  496  491  490  487 ] final -117.58 input  -89.99 | X-H torsion

> <Gold.Protein.ActiveResidues>
 MET295  LEU298  THR299  LEU301  ALA302  GLU305  TRP335  MET336  LEU339  MET340 
 GLY342  LEU343  ARG346  PHE356  ILE373  ILE376  PHE377  LEU380  LYS471  GLY472 
 MET473  HIS475  LEU476  LEU477  ASN478  MET479  VAL484  VAL487 

> <Gold.Protein.RotatedAtoms>
   37.0059   34.3865   40.8161 H   0  0  0  0  0  0  0  0  0  0  0  0  # atno 496  bound_to 491 

> <Gold.Score>
     Score     S(PLP)   S(hbond)     S(cho)   S(metal)  DE(clash)   DE(tors)     intcor
     37.65     -34.65       1.00       0.00       0.00       0.00       0.00       0.00

> <Gold.PLP.Fitness>
37.6541

> <Gold.PLP.PLP>
-34.6541

> <Gold.PLP.part.hbond>
-1.0000

> <Gold.PLP.part.metal>
0.0000

> <Gold.PLP.part.buried>
-0.4636

> <Gold.PLP.part.nonpolar>
-33.3273

> <Gold.PLP.part.repulsive>
0.0458

> <Gold.PLP.ligand.clash>
0.0000

> <Gold.PLP.ligand.torsion>
0.0000

> <Gold.PLP.Chemscore.Hbond>
1.0000

> <Gold.PLP.Chemscore.CHOScore>
0.0000

> <Gold.PLP.Chemscore.Metal>
0.0000

> <Gold.Chemscore.Hbonds>
donor molecule, donor type, donor heavy atom, donor atom, acceptor molecule, acceptor atom, score
      L1  H     1    15       P1  3229  1.00

> <Gold.PLP.Chemscore.Internal.Correction>
0.0000

