#       Name:                EN300-4296250_i001
#       Creating user name   aseyller
#       Creation time:       Fri Apr 21 14:05:40 2023


#       File generated by GOLD software.
#

@<TRIPOS>MOLECULE
EN300-4296250_i001|amine_1|mol2|584|dock13
    16    16     1
SMALL
USER_CHARGES


@<TRIPOS>ATOM
      1 N1          29.6952  38.8007  35.7670 N.pl3          1 <1>                0.0000
      2 C2          29.3910  38.1228  36.9480 C.ar           1 <1>                0.0000
      3 C3          30.4148  37.6040  37.7336 C.ar           1 <1>                0.0000
      4 C4          30.1184  36.9343  38.9007 C.ar           1 <1>                0.0000
      5 C5          28.7885  36.7764  39.2951 C.ar           1 <1>                0.0000
      6 C6          28.4773  36.0813  40.5078 C.1            1 <1>                0.0000
      7 C7          28.2223  35.5116  41.5021 C.1            1 <1>                0.0000
      8 C8          27.7619  37.2985  38.5043 C.ar           1 <1>                0.0000
      9 Cl9         26.1065  37.1055  38.9903 Cl             1 <1>                0.0000
     10 C10         28.0659  37.9725  37.3396 C.ar           1 <1>                0.0000
     11 H11         31.4435  37.7258  37.4282 H              1 <1>                0.0000
     12 H12         30.9142  36.5315  39.5097 H              1 <1>                0.0000
     13 H13         27.9941  35.0019  42.3914 H              1 <1>                0.0000
     14 H14         27.2733  38.3768  36.7276 H              1 <1>                0.0000
     15 H15         30.6198  38.9097  35.4947 H              1 <1>                0.0000
     16 H16         28.9819  39.1596  35.2163 H              1 <1>                0.0000
@<TRIPOS>BOND
    1    1    2 1     
    2    1   15 1     
    3    1   16 1     
    4    2    3 ar    
    5    2   10 ar    
    6    3    4 ar    
    7    3   11 1     
    8    4    5 ar    
    9    4   12 1     
   10    5    6 1     
   11    5    8 ar    
   12    6    7 3     
   13    7   13 1     
   14    8    9 1     
   15    8   10 ar    
   16   10   14 1     
@<TRIPOS>SUBSTRUCTURE
      1 ****           1
@<TRIPOS>SET
DONOR_HYDROGENS      STATIC     ATOMS    <user>   **** ""
2 15 16
ATOM$RED        STATIC     ATOMS    COLORGROUP SYSTEM
2 15 16
@<TRIPOS>COMMENT
> <Gold.Version>
2022.2.0

> <Gold.Id.Protein>
1qkm|1qkm_protein|mol2

> <Gold.Protein.RotatedTorsions>
[  496  491  490  487 ] final  161.69 input  -89.99 | X-H torsion

> <Gold.Protein.ActiveResidues>
 MET295  LEU298  THR299  LEU301  ALA302  GLU305  TRP335  MET336  LEU339  MET340 
 GLY342  LEU343  ARG346  PHE356  ILE373  ILE376  PHE377  LEU380  LYS471  GLY472 
 MET473  HIS475  LEU476  LEU477  ASN478  MET479  VAL484  VAL487 

> <Gold.Protein.RotatedAtoms>
   37.3010   33.2244   41.0505 H   0  0  0  0  0  0  0  0  0  0  0  0  # atno 496  bound_to 491 

> <Gold.Score>
     Score     S(PLP)   S(hbond)     S(cho)   S(metal)  DE(clash)   DE(tors)     intcor
     35.77     -35.77       0.00       0.00       0.00       0.00       0.00       0.00

> <Gold.PLP.Fitness>
35.7678

> <Gold.PLP.PLP>
-35.7678

> <Gold.PLP.part.hbond>
0.0000

> <Gold.PLP.part.metal>
0.0000

> <Gold.PLP.part.buried>
-1.5361

> <Gold.PLP.part.nonpolar>
-34.6436

> <Gold.PLP.part.repulsive>
0.0000

> <Gold.PLP.ligand.clash>
0.0000

> <Gold.PLP.ligand.torsion>
0.0000

> <Gold.PLP.Chemscore.Hbond>
0.0000

> <Gold.PLP.Chemscore.CHOScore>
0.0000

> <Gold.PLP.Chemscore.Metal>
0.0000

> <Gold.PLP.Chemscore.Internal.Correction>
0.0000

