#       Name:                plp ligand
#       Creating user name   aseyller
#       Creation time:       Fri Apr 21 14:05:38 2023


#       File generated by GOLD software.
#

@<TRIPOS>MOLECULE
plp ligand
    16    16     1
SMALL
USER_CHARGES


@<TRIPOS>ATOM
      1 N1           2.8349  -0.8467   0.0006 DONOR          1 <1>                0.0000
      2 C2           1.5027  -0.4319   0.0009 NONPOLAR       1 <1>                0.0000
      3 C3           1.1986   0.9253   0.0004 NONPOLAR       1 <1>                0.0000
      4 C4          -0.1157   1.3388   0.0003 NONPOLAR       1 <1>                0.0000
      5 C5          -1.1436   0.3940   0.0006 NONPOLAR       1 <1>                0.0000
      6 C6          -2.5105   0.8207  -0.0001 NONPOLAR       1 <1>                0.0000
      7 C7          -3.6312   1.1705  -0.0006 NONPOLAR       1 <1>                0.0000
      8 C8          -0.8356  -0.9687   0.0010 NONPOLAR       1 <1>                0.0000
      9 Cl9         -2.1097  -2.1478   0.0008 NONPOLAR       1 <1>                0.0000
     10 C10          0.4825  -1.3759  -0.0042 NONPOLAR       1 <1>                0.0000
     11 H11          1.9938   1.6561   0.0006                1 <1>                0.0000
     12 H12         -0.3506   2.3930   0.0003                1 <1>                0.0000
     13 H13         -4.6335   1.4834  -0.0011                1 <1>                0.0000
     14 H14          0.7219  -2.4290  -0.0042                1 <1>                0.0000
     15 H15          3.5477  -0.1889   0.0000                1 <1>                0.0000
     16 H16          3.0482  -1.7930   0.0048                1 <1>                0.0000
@<TRIPOS>BOND
    1    1    2 1     
    2    1   15 1     
    3    1   16 1     
    4    2    3 ar    
    5    2   10 ar    
    6    3    4 ar    
    7    3   11 1     
    8    4    5 ar    
    9    4   12 1     
   10    5    6 1     
   11    5    8 ar    
   12    6    7 3     
   13    7   13 1     
   14    8    9 1     
   15    8   10 ar    
   16   10   14 1     
@<TRIPOS>SUBSTRUCTURE
      1 ****           1
@<TRIPOS>SET
DONOR_HYDROGENS      STATIC     ATOMS    <user>   **** ""
2 15 16
ATOM$RED        STATIC     ATOMS    COLORGROUP SYSTEM
2 15 16
