#       Name:                EN300-64755_i001
#       Creating user name   fsindt
#       Creation time:       Wed Mar  1 23:48:44 2023


#       File generated by GOLD software.
#

@<TRIPOS>MOLECULE
EN300-64755_i001|acide_1|mol2|10628|dock5
    23    23     1
SMALL
USER_CHARGES


@<TRIPOS>ATOM
      1 C1          -1.5535 -12.4283  11.2108 C.3            1 <1>                0.0000
      2 C2          -1.0231 -11.5171  10.1021 C.3            1 <1>                0.0000
      3 C3          -2.1938 -10.7970   9.4301 C.3            1 <1>                0.0000
      4 C4          -0.0816 -10.5005  10.6948 C.2            1 <1>                0.0000
      5 O5           1.0182 -10.3259  10.1983 O.co2          1 <1>                0.0000
      6 O6          -0.4198  -9.8528  11.6708 O.co2          1 <1>               -1.0000
      7 C7          -0.2890 -12.3454   9.0794 C.ar           1 <1>                0.0000
      8 C8          -0.0763 -13.6924   9.3047 C.ar           1 <1>                0.0000
      9 C9           0.5971 -14.4529   8.3668 C.ar           1 <1>                0.0000
     10 C10          1.0579 -13.8664   7.2033 C.ar           1 <1>                0.0000
     11 C11          0.8448 -12.5183   6.9771 C.ar           1 <1>                0.0000
     12 Br12         1.4751 -11.7152   5.3853 Br             1 <1>                0.0000
     13 C13          0.1665 -11.7592   7.9133 C.ar           1 <1>                0.0000
     14 H14         -2.2345 -13.1636  10.7822 H              1 <1>                0.0000
     15 H15         -0.7194 -12.9414  11.6896 H              1 <1>                0.0000
     16 H16         -2.0845 -11.8293  11.9505 H              1 <1>                0.0000
     17 H17         -2.7248 -10.1980  10.1699 H              1 <1>                0.0000
     18 H18         -1.8160 -10.1479   8.6402 H              1 <1>                0.0000
     19 H19         -2.8748 -11.5323   9.0014 H              1 <1>                0.0000
     20 H20         -0.4360 -14.1510  10.2140 H              1 <1>                0.0000
     21 H21          0.7633 -15.5053   8.5434 H              1 <1>                0.0000
     22 H22          1.5845 -14.4604   6.4709 H              1 <1>                0.0000
     23 H23          0.0001 -10.7067   7.7371 H              1 <1>                0.0000
@<TRIPOS>BOND
    1    1    2 1     
    2    1   14 1     
    3    1   15 1     
    4    1   16 1     
    5    2    3 1     
    6    2    4 1     
    7    2    7 1     
    8    3   17 1     
    9    3   18 1     
   10    3   19 1     
   11    4    5 ar    
   12    4    6 ar    
   13    7    8 ar    
   14    7   13 ar    
   15    8    9 ar    
   16    8   20 1     
   17    9   10 ar    
   18    9   21 1     
   19   10   11 ar    
   20   10   22 1     
   21   11   12 1     
   22   11   13 ar    
   23   13   23 1     
@<TRIPOS>SUBSTRUCTURE
      1 ****           1
@<TRIPOS>COMMENT
> <Gold.Version>
2022.2.0

> <Gold.Id.Protein>
3pbl|protein|mol2

> <Gold.Protein.RotatedTorsions>
[ 1303 1298 1297 1294 ] final   70.13 input  179.99 | X-H torsion
[ 2461 2456 2455 2452 ] final -167.35 input   30.03 | X-H torsion
[ 2515 2510 2509 2506 ] final  121.12 input  -89.99 | X-H torsion
[ 3721 3712 3711 3710 ] final  -13.71 input -179.91 | X-H torsion
[ 3841 3832 3831 3830 ] final  173.39 input -179.91 | X-H torsion
[ 3767 3762 3761 3758 ] final  177.88 input  -89.99 | X-H torsion
[ 2472 2467 2466 2463 ] final    5.80 input  -89.97 | X-H torsion

> <Gold.Protein.ActiveResidues>
 VAL82   VAL86   LEU89   PHE106  VAL107  ASP110  VAL111  MET112  CYS114  THR115 
 CYS181  SER182  ILE183  PHE188  VAL189  ILE190  SER192  SER193  SER196  TRP342 
 PHE345  PHE346  HIS349  VAL350  TYR365  THR369  GLY372  TYR373 

> <Gold.Protein.RotatedAtoms>
    4.1476  -10.2456    4.7213 H   0  0  0  0  0  0  0  0  0  0  0  0  # atno 1303 bound_to 1298
    1.2504   -9.2691    8.3834 H   0  0  0  0  0  0  0  0  0  0  0  0  # atno 2461 bound_to 2456
   -3.8552   -4.8558    7.9997 H   0  0  0  0  0  0  0  0  0  0  0  0  # atno 2472 bound_to 2467
    2.0435   -8.1839    6.0706 H   0  0  0  0  0  0  0  0  0  0  0  0  # atno 2515 bound_to 2510
   -2.5274  -17.8585   14.4198 H   0  0  0  0  0  0  0  0  0  0  0  0  # atno 3721 bound_to 3712
   -4.0759  -22.5588   11.5526 H   0  0  0  0  0  0  0  0  0  0  0  0  # atno 3767 bound_to 3762
    3.0107  -20.1267    8.4473 H   0  0  0  0  0  0  0  0  0  0  0  0  # atno 3841 bound_to 3832
    3.4224   -9.1243    3.7816 LP  0  0  0  0  0  0  0  0  0  0  0  0  # atno 4297 bound_to 1298
    4.7921   -8.7512    4.5886 LP  0  0  0  0  0  0  0  0  0  0  0  0  # atno 4298 bound_to 1298
    2.0363   -8.1284    7.5181 LP  0  0  0  0  0  0  0  0  0  0  0  0  # atno 4299 bound_to 2456
    0.4510   -8.4108    7.2468 LP  0  0  0  0  0  0  0  0  0  0  0  0  # atno 4300 bound_to 2456
    2.5332   -7.6173    4.6197 LP  0  0  0  0  0  0  0  0  0  0  0  0  # atno 4301 bound_to 2510
    2.7202   -9.1980    4.9845 LP  0  0  0  0  0  0  0  0  0  0  0  0  # atno 4302 bound_to 2510
   -3.5085  -16.5985   14.2538 LP  0  0  0  0  0  0  0  0  0  0  0  0  # atno 4306 bound_to 3712
   -3.1013  -17.5098   12.9614 LP  0  0  0  0  0  0  0  0  0  0  0  0  # atno 4307 bound_to 3712
    2.2734  -21.1137    9.4759 LP  0  0  0  0  0  0  0  0  0  0  0  0  # atno 4314 bound_to 3832
    1.4781  -19.8422    8.8298 LP  0  0  0  0  0  0  0  0  0  0  0  0  # atno 4315 bound_to 3832
   -4.5988  -23.2708   10.1791 LP  0  0  0  0  0  0  0  0  0  0  0  0  # atno 4318 bound_to 3762
   -5.4524  -22.0454   10.8396 LP  0  0  0  0  0  0  0  0  0  0  0  0  # atno 4319 bound_to 3762
   -4.4073   -5.4295    9.4253 LP  0  0  0  0  0  0  0  0  0  0  0  0  # atno 4320 bound_to 2467
   -5.4542   -5.1082    8.2140 LP  0  0  0  0  0  0  0  0  0  0  0  0  # atno 4321 bound_to 2467

> <Gold.Score>
     Score     S(PLP)   S(hbond)     S(cho)   S(metal)  DE(clash)   DE(tors)     intcor
     47.81     -45.87       0.87       0.00       0.00       0.99       0.41       1.11

> <Gold.PLP.Fitness>
47.8088

> <Gold.PLP.PLP>
-45.8719

> <Gold.PLP.part.hbond>
-1.0000

> <Gold.PLP.part.metal>
0.0000

> <Gold.PLP.part.buried>
-3.7613

> <Gold.PLP.part.nonpolar>
-42.3112

> <Gold.PLP.part.repulsive>
0.0760

> <Gold.PLP.ligand.clash>
0.9865

> <Gold.PLP.ligand.torsion>
0.4059

> <Gold.PLP.Chemscore.Hbond>
0.8736

> <Gold.PLP.Chemscore.CHOScore>
0.0000

> <Gold.PLP.Chemscore.Metal>
0.0000

> <Gold.Chemscore.Hbonds>
donor molecule, donor type, donor heavy atom, donor atom, acceptor molecule, acceptor atom, score
      P1  H  2456  2461       L1     5  0.87

> <Gold.PLP.Chemscore.Internal.Correction>
1.1144

