#       Name:                EN300-64755_i001
#       Creating user name   fsindt
#       Creation time:       Wed Mar  1 23:48:44 2023


#       File generated by GOLD software.
#

@<TRIPOS>MOLECULE
EN300-64755_i001|acide_1|mol2|10628|dock4
    23    23     1
SMALL
USER_CHARGES


@<TRIPOS>ATOM
      1 C1           0.0044  -9.9662  10.9269 C.3            1 <1>                0.0000
      2 C2          -0.9173 -11.1435  10.6025 C.3            1 <1>                0.0000
      3 C3          -1.3172 -11.8504  11.8991 C.3            1 <1>                0.0000
      4 C4          -2.1532 -10.6366   9.9049 C.2            1 <1>                0.0000
      5 O5          -2.2376  -9.4614   9.5913 O.co2          1 <1>                0.0000
      6 O6          -3.0688 -11.4018   9.6543 O.co2          1 <1>               -1.0000
      7 C7          -0.1953 -12.1138   9.7034 C.ar           1 <1>                0.0000
      8 C8          -0.0282 -13.4280  10.0977 C.ar           1 <1>                0.0000
      9 C9           0.6340 -14.3187   9.2733 C.ar           1 <1>                0.0000
     10 C10          1.1292 -13.8953   8.0545 C.ar           1 <1>                0.0000
     11 C11          0.9618 -12.5801   7.6592 C.ar           1 <1>                0.0000
     12 Br12         1.6390 -12.0002   5.9917 Br             1 <1>                0.0000
     13 C13          0.2946 -11.6908   8.4820 C.ar           1 <1>                0.0000
     14 H14          0.8983 -10.3329  11.4314 H              1 <1>                0.0000
     15 H15          0.2893  -9.4625  10.0032 H              1 <1>                0.0000
     16 H16         -0.5177  -9.2644  11.5772 H              1 <1>                0.0000
     17 H17         -1.8393 -11.1486  12.5494 H              1 <1>                0.0000
     18 H18         -1.9738 -12.6892  11.6680 H              1 <1>                0.0000
     19 H19         -0.4233 -12.2171  12.4036 H              1 <1>                0.0000
     20 H20         -0.4148 -13.7592  11.0503 H              1 <1>                0.0000
     21 H21          0.7647 -15.3454   9.5819 H              1 <1>                0.0000
     22 H22          1.6471 -14.5910   7.4108 H              1 <1>                0.0000
     23 H23          0.1637 -10.6640   8.1738 H              1 <1>                0.0000
@<TRIPOS>BOND
    1    1    2 1     
    2    1   14 1     
    3    1   15 1     
    4    1   16 1     
    5    2    3 1     
    6    2    4 1     
    7    2    7 1     
    8    3   17 1     
    9    3   18 1     
   10    3   19 1     
   11    4    5 ar    
   12    4    6 ar    
   13    7    8 ar    
   14    7   13 ar    
   15    8    9 ar    
   16    8   20 1     
   17    9   10 ar    
   18    9   21 1     
   19   10   11 ar    
   20   10   22 1     
   21   11   12 1     
   22   11   13 ar    
   23   13   23 1     
@<TRIPOS>SUBSTRUCTURE
      1 ****           1
@<TRIPOS>COMMENT
> <Gold.Version>
2022.2.0

> <Gold.Id.Protein>
3pbl|protein|mol2

> <Gold.Protein.RotatedTorsions>
[ 1303 1298 1297 1294 ] final -160.10 input  179.99 | X-H torsion
[ 2461 2456 2455 2452 ] final  -87.43 input   30.03 | X-H torsion
[ 2515 2510 2509 2506 ] final -147.12 input  -89.99 | X-H torsion
[ 3721 3712 3711 3710 ] final   44.59 input -179.91 | X-H torsion
[ 3841 3832 3831 3830 ] final -175.63 input -179.91 | X-H torsion
[ 3767 3762 3761 3758 ] final  136.02 input  -89.99 | X-H torsion
[ 2472 2467 2466 2463 ] final   33.41 input  -89.97 | X-H torsion

> <Gold.Protein.ActiveResidues>
 VAL82   VAL86   LEU89   PHE106  VAL107  ASP110  VAL111  MET112  CYS114  THR115 
 CYS181  SER182  ILE183  PHE188  VAL189  ILE190  SER192  SER193  SER196  TRP342 
 PHE345  PHE346  HIS349  VAL350  TYR365  THR369  GLY372  TYR373 

> <Gold.Protein.RotatedAtoms>
    4.7110   -8.6504    4.4938 H   0  0  0  0  0  0  0  0  0  0  0  0  # atno 1303 bound_to 1298
    0.3453   -8.8800    7.6787 H   0  0  0  0  0  0  0  0  0  0  0  0  # atno 2461 bound_to 2456
   -4.2171   -4.8012    7.7378 H   0  0  0  0  0  0  0  0  0  0  0  0  # atno 2472 bound_to 2467
    2.5522   -9.2495    5.4095 H   0  0  0  0  0  0  0  0  0  0  0  0  # atno 2515 bound_to 2510
   -2.5225  -17.9963   13.5872 H   0  0  0  0  0  0  0  0  0  0  0  0  # atno 3721 bound_to 3712
   -3.9085  -23.0478   11.1205 H   0  0  0  0  0  0  0  0  0  0  0  0  # atno 3767 bound_to 3762
    2.9183  -20.0009    8.3919 H   0  0  0  0  0  0  0  0  0  0  0  0  # atno 3841 bound_to 3832
    4.2815  -10.1968    4.7948 LP  0  0  0  0  0  0  0  0  0  0  0  0  # atno 4297 bound_to 1298
    3.3694   -9.2743    3.8030 LP  0  0  0  0  0  0  0  0  0  0  0  0  # atno 4298 bound_to 1298
    1.8388   -9.0074    8.3273 LP  0  0  0  0  0  0  0  0  0  0  0  0  # atno 4299 bound_to 2456
    1.5534   -7.9208    7.1422 LP  0  0  0  0  0  0  0  0  0  0  0  0  # atno 4300 bound_to 2456
    2.0384   -7.7698    5.8706 LP  0  0  0  0  0  0  0  0  0  0  0  0  # atno 4301 bound_to 2510
    2.7061   -7.9794    4.3951 LP  0  0  0  0  0  0  0  0  0  0  0  0  # atno 4302 bound_to 2510
   -3.1123  -17.1975   14.8490 LP  0  0  0  0  0  0  0  0  0  0  0  0  # atno 4306 bound_to 3712
   -3.5031  -16.7518   13.3274 LP  0  0  0  0  0  0  0  0  0  0  0  0  # atno 4307 bound_to 3712
    2.4387  -21.1493    9.4054 LP  0  0  0  0  0  0  0  0  0  0  0  0  # atno 4314 bound_to 3832
    1.4196  -19.9520    8.9643 LP  0  0  0  0  0  0  0  0  0  0  0  0  # atno 4315 bound_to 3832
   -5.1571  -22.9081   10.0773 LP  0  0  0  0  0  0  0  0  0  0  0  0  # atno 4318 bound_to 3762
   -5.0615  -21.9193   11.3733 LP  0  0  0  0  0  0  0  0  0  0  0  0  # atno 4319 bound_to 3762
   -3.9982   -5.3278    9.2679 LP  0  0  0  0  0  0  0  0  0  0  0  0  # atno 4320 bound_to 2467
   -5.5015   -5.2645    8.6333 LP  0  0  0  0  0  0  0  0  0  0  0  0  # atno 4321 bound_to 2467

> <Gold.Score>
     Score     S(PLP)   S(hbond)     S(cho)   S(metal)  DE(clash)   DE(tors)     intcor
     46.90     -47.11       0.00       0.00       0.00       1.10       0.11       1.11

> <Gold.PLP.Fitness>
46.9040

> <Gold.PLP.PLP>
-47.1146

> <Gold.PLP.part.hbond>
-0.0809

> <Gold.PLP.part.metal>
0.0000

> <Gold.PLP.part.buried>
-4.8764

> <Gold.PLP.part.nonpolar>
-43.3767

> <Gold.PLP.part.repulsive>
0.2612

> <Gold.PLP.ligand.clash>
1.1047

> <Gold.PLP.ligand.torsion>
0.1102

> <Gold.PLP.Chemscore.Hbond>
0.0000

> <Gold.PLP.Chemscore.CHOScore>
0.0000

> <Gold.PLP.Chemscore.Metal>
0.0000

> <Gold.PLP.Chemscore.Internal.Correction>
1.1144

