#       Name:                EN300-64755_i001
#       Creating user name   fsindt
#       Creation time:       Wed Mar  1 23:48:43 2023


#       File generated by GOLD software.
#

@<TRIPOS>MOLECULE
EN300-64755_i001|acide_1|mol2|10628|dock1
    23    23     1
SMALL
USER_CHARGES


@<TRIPOS>ATOM
      1 C1           0.0054 -10.3403  10.8322 C.3            1 <1>                0.0000
      2 C2          -0.9715 -11.2817  10.1248 C.3            1 <1>                0.0000
      3 C3          -1.3812 -12.4038  11.0808 C.3            1 <1>                0.0000
      4 C4          -2.1951 -10.5104   9.7017 C.2            1 <1>                0.0000
      5 O5          -2.0771  -9.5035   9.0244 O.co2          1 <1>                0.0000
      6 O6          -3.3030 -10.8934  10.0368 O.co2          1 <1>               -1.0000
      7 C7          -0.3065 -11.8750   8.9095 C.ar           1 <1>                0.0000
      8 C8           0.1902 -11.0472   7.9203 C.ar           1 <1>                0.0000
      9 C9           0.8004 -11.5909   6.8052 C.ar           1 <1>                0.0000
     10 C10          0.9139 -12.9624   6.6790 C.ar           1 <1>                0.0000
     11 C11          0.4173 -13.7914   7.6691 C.ar           1 <1>                0.0000
     12 Br12         0.5723 -15.6681   7.4971 Br             1 <1>                0.0000
     13 C13         -0.1883 -13.2468   8.7869 C.ar           1 <1>                0.0000
     14 H14          0.8905 -10.8982  11.1382 H              1 <1>                0.0000
     15 H15          0.2974  -9.5409  10.1511 H              1 <1>                0.0000
     16 H16         -0.4754  -9.9112  11.7111 H              1 <1>                0.0000
     17 H17         -1.8620 -11.9746  11.9598 H              1 <1>                0.0000
     18 H18         -2.0771 -13.0744  10.5769 H              1 <1>                0.0000
     19 H19         -0.4962 -12.9616  11.3868 H              1 <1>                0.0000
     20 H20          0.1014  -9.9753   8.0184 H              1 <1>                0.0000
     21 H21          1.1881 -10.9437   6.0323 H              1 <1>                0.0000
     22 H22          1.3899 -13.3871   5.8075 H              1 <1>                0.0000
     23 H23         -0.5762 -13.8935   9.5600 H              1 <1>                0.0000
@<TRIPOS>BOND
    1    1    2 1     
    2    1   14 1     
    3    1   15 1     
    4    1   16 1     
    5    2    3 1     
    6    2    4 1     
    7    2    7 1     
    8    3   17 1     
    9    3   18 1     
   10    3   19 1     
   11    4    5 ar    
   12    4    6 ar    
   13    7    8 ar    
   14    7   13 ar    
   15    8    9 ar    
   16    8   20 1     
   17    9   10 ar    
   18    9   21 1     
   19   10   11 ar    
   20   10   22 1     
   21   11   12 1     
   22   11   13 ar    
   23   13   23 1     
@<TRIPOS>SUBSTRUCTURE
      1 ****           1
@<TRIPOS>COMMENT
> <Gold.Version>
2022.2.0

> <Gold.Id.Protein>
3pbl|protein|mol2

> <Gold.Protein.RotatedTorsions>
[ 1303 1298 1297 1294 ] final    2.37 input  179.99 | X-H torsion
[ 2461 2456 2455 2452 ] final -153.25 input   30.03 | X-H torsion
[ 2515 2510 2509 2506 ] final    8.33 input  -89.99 | X-H torsion
[ 3721 3712 3711 3710 ] final  -29.57 input -179.91 | X-H torsion
[ 3841 3832 3831 3830 ] final -156.31 input -179.91 | X-H torsion
[ 3767 3762 3761 3758 ] final   -9.27 input  -89.99 | X-H torsion
[ 2472 2467 2466 2463 ] final   55.97 input  -89.97 | X-H torsion

> <Gold.Protein.ActiveResidues>
 VAL82   VAL86   LEU89   PHE106  VAL107  ASP110  VAL111  MET112  CYS114  THR115 
 CYS181  SER182  ILE183  PHE188  VAL189  ILE190  SER192  SER193  SER196  TRP342 
 PHE345  PHE346  HIS349  VAL350  TYR365  THR369  GLY372  TYR373 

> <Gold.Protein.RotatedAtoms>
    3.3990   -9.9030    4.0681 H   0  0  0  0  0  0  0  0  0  0  0  0  # atno 1303 bound_to 1298
    1.0273   -9.2888    8.3251 H   0  0  0  0  0  0  0  0  0  0  0  0  # atno 2461 bound_to 2456
   -4.5772   -4.8125    7.6591 H   0  0  0  0  0  0  0  0  0  0  0  0  # atno 2472 bound_to 2467
    2.4835   -7.5497    4.7036 H   0  0  0  0  0  0  0  0  0  0  0  0  # atno 2515 bound_to 2510
   -2.6008  -17.7044   14.5872 H   0  0  0  0  0  0  0  0  0  0  0  0  # atno 3721 bound_to 3712
   -5.3982  -22.6020   10.2137 H   0  0  0  0  0  0  0  0  0  0  0  0  # atno 3767 bound_to 3762
    2.7074  -19.8060    8.3479 H   0  0  0  0  0  0  0  0  0  0  0  0  # atno 3841 bound_to 3832
    4.2009   -8.4806    4.0727 LP  0  0  0  0  0  0  0  0  0  0  0  0  # atno 4297 bound_to 1298
    4.7626   -9.7375    4.9509 LP  0  0  0  0  0  0  0  0  0  0  0  0  # atno 4298 bound_to 1298
    2.1249   -8.2634    7.6839 LP  0  0  0  0  0  0  0  0  0  0  0  0  # atno 4299 bound_to 2456
    0.5855   -8.2562    7.1393 LP  0  0  0  0  0  0  0  0  0  0  0  0  # atno 4300 bound_to 2456
    2.7534   -9.1501    4.8814 LP  0  0  0  0  0  0  0  0  0  0  0  0  # atno 4301 bound_to 2510
    2.0598   -8.2996    6.0906 LP  0  0  0  0  0  0  0  0  0  0  0  0  # atno 4302 bound_to 2510
   -3.5555  -16.5563   13.9972 LP  0  0  0  0  0  0  0  0  0  0  0  0  # atno 4306 bound_to 3712
   -2.9695  -17.7300   13.0247 LP  0  0  0  0  0  0  0  0  0  0  0  0  # atno 4307 bound_to 3712
    2.7100  -21.1447    9.2333 LP  0  0  0  0  0  0  0  0  0  0  0  0  # atno 4314 bound_to 3832
    1.3919  -20.1817    9.1872 LP  0  0  0  0  0  0  0  0  0  0  0  0  # atno 4315 bound_to 3832
   -4.7200  -22.0215   11.5812 LP  0  0  0  0  0  0  0  0  0  0  0  0  # atno 4318 bound_to 3762
   -4.0094  -23.2516   10.7759 LP  0  0  0  0  0  0  0  0  0  0  0  0  # atno 4319 bound_to 3762
   -3.7577   -5.2100    9.0144 LP  0  0  0  0  0  0  0  0  0  0  0  0  # atno 4320 bound_to 2467
   -5.3820   -5.3710    8.9655 LP  0  0  0  0  0  0  0  0  0  0  0  0  # atno 4321 bound_to 2467

> <Gold.Score>
     Score     S(PLP)   S(hbond)     S(cho)   S(metal)  DE(clash)   DE(tors)     intcor
     45.41     -45.63       0.00       0.00       0.00       1.10       0.12       1.12

> <Gold.PLP.Fitness>
45.4091

> <Gold.PLP.PLP>
-45.6333

> <Gold.PLP.part.hbond>
-0.8264

> <Gold.PLP.part.metal>
0.0000

> <Gold.PLP.part.buried>
-1.1435

> <Gold.PLP.part.nonpolar>
-45.2996

> <Gold.PLP.part.repulsive>
0.1460

> <Gold.PLP.ligand.clash>
1.1037

> <Gold.PLP.ligand.torsion>
0.1181

> <Gold.PLP.Chemscore.Hbond>
0.0000

> <Gold.PLP.Chemscore.CHOScore>
0.0000

> <Gold.PLP.Chemscore.Metal>
0.0000

> <Gold.PLP.Chemscore.Internal.Correction>
1.1157

