#       Name:                EN300-64755_i001
#       Creating user name   fsindt
#       Creation time:       Wed Mar  1 23:48:47 2023


#       File generated by GOLD software.
#

@<TRIPOS>MOLECULE
EN300-64755_i001|acide_1|mol2|10628|dock16
    23    23     1
SMALL
USER_CHARGES


@<TRIPOS>ATOM
      1 C1          -0.8754 -13.4389   7.8101 C.3            1 <1>                0.0000
      2 C2          -0.1247 -12.6128   8.8564 C.3            1 <1>                0.0000
      3 C3           0.6125 -13.5511   9.8141 C.3            1 <1>                0.0000
      4 C4           0.8705 -11.7146   8.1678 C.2            1 <1>                0.0000
      5 O5           1.0269 -11.7903   6.9611 O.co2          1 <1>                0.0000
      6 O6           1.5191 -10.9124   8.8177 O.co2          1 <1>               -1.0000
      7 C7          -1.1064 -11.7731   9.6324 C.ar           1 <1>                0.0000
      8 C8          -0.6614 -10.9610  10.6586 C.ar           1 <1>                0.0000
      9 C9          -1.5616 -10.1903  11.3708 C.ar           1 <1>                0.0000
     10 C10         -2.9068 -10.2316  11.0569 C.ar           1 <1>                0.0000
     11 C11         -3.3526 -11.0439  10.0296 C.ar           1 <1>                0.0000
     12 Br12        -5.1932 -11.1008   9.5996 Br             1 <1>                0.0000
     13 C13         -2.4510 -11.8106   9.3140 C.ar           1 <1>                0.0000
     14 H14         -1.5952 -14.0885   8.3081 H              1 <1>                0.0000
     15 H15         -1.4006 -12.7705   7.1279 H              1 <1>                0.0000
     16 H16         -0.1654 -14.0463   7.2489 H              1 <1>                0.0000
     17 H17          1.3225 -14.1585   9.2528 H              1 <1>                0.0000
     18 H18          1.1473 -12.9626  10.5595 H              1 <1>                0.0000
     19 H19         -0.1072 -14.2007  10.3121 H              1 <1>                0.0000
     20 H20          0.3898 -10.9288  10.9044 H              1 <1>                0.0000
     21 H21         -1.2135  -9.5562  12.1728 H              1 <1>                0.0000
     22 H22         -3.6101  -9.6301  11.6138 H              1 <1>                0.0000
     23 H23         -2.7986 -12.4449   8.5120 H              1 <1>                0.0000
@<TRIPOS>BOND
    1    1    2 1     
    2    1   14 1     
    3    1   15 1     
    4    1   16 1     
    5    2    3 1     
    6    2    4 1     
    7    2    7 1     
    8    3   17 1     
    9    3   18 1     
   10    3   19 1     
   11    4    5 ar    
   12    4    6 ar    
   13    7    8 ar    
   14    7   13 ar    
   15    8    9 ar    
   16    8   20 1     
   17    9   10 ar    
   18    9   21 1     
   19   10   11 ar    
   20   10   22 1     
   21   11   12 1     
   22   11   13 ar    
   23   13   23 1     
@<TRIPOS>SUBSTRUCTURE
      1 ****           1
@<TRIPOS>COMMENT
> <Gold.Version>
2022.2.0

> <Gold.Id.Protein>
3pbl|protein|mol2

> <Gold.Protein.RotatedTorsions>
[ 1303 1298 1297 1294 ] final -170.73 input  179.99 | X-H torsion
[ 2461 2456 2455 2452 ] final  176.27 input   30.03 | X-H torsion
[ 2515 2510 2509 2506 ] final  141.61 input  -89.99 | X-H torsion
[ 3721 3712 3711 3710 ] final  146.67 input -179.91 | X-H torsion
[ 3841 3832 3831 3830 ] final  -45.68 input -179.91 | X-H torsion
[ 3767 3762 3761 3758 ] final -102.64 input  -89.99 | X-H torsion
[ 2472 2467 2466 2463 ] final  -11.29 input  -89.97 | X-H torsion

> <Gold.Protein.ActiveResidues>
 VAL82   VAL86   LEU89   PHE106  VAL107  ASP110  VAL111  MET112  CYS114  THR115 
 CYS181  SER182  ILE183  PHE188  VAL189  ILE190  SER192  SER193  SER196  TRP342 
 PHE345  PHE346  HIS349  VAL350  TYR365  THR369  GLY372  TYR373 

> <Gold.Protein.RotatedAtoms>
    4.7979   -8.7610    4.5971 H   0  0  0  0  0  0  0  0  0  0  0  0  # atno 1303 bound_to 1298
    1.5085   -9.1960    8.4005 H   0  0  0  0  0  0  0  0  0  0  0  0  # atno 2461 bound_to 2456
   -3.7093   -4.9225    8.2294 H   0  0  0  0  0  0  0  0  0  0  0  0  # atno 2472 bound_to 2467
    2.1059   -8.5127    6.0908 H   0  0  0  0  0  0  0  0  0  0  0  0  # atno 2515 bound_to 2510
   -3.1869  -16.9014   13.1696 H   0  0  0  0  0  0  0  0  0  0  0  0  # atno 3721 bound_to 3712
   -5.0780  -21.9169   11.3588 H   0  0  0  0  0  0  0  0  0  0  0  0  # atno 3767 bound_to 3762
    1.5665  -19.9535    9.1865 H   0  0  0  0  0  0  0  0  0  0  0  0  # atno 3841 bound_to 3832
    4.1360  -10.2491    4.7139 LP  0  0  0  0  0  0  0  0  0  0  0  0  # atno 4297 bound_to 1298
    3.4280   -9.1115    3.7805 LP  0  0  0  0  0  0  0  0  0  0  0  0  # atno 4298 bound_to 1298
    1.8740   -8.0079    7.3411 LP  0  0  0  0  0  0  0  0  0  0  0  0  # atno 4299 bound_to 2456
    0.3553   -8.6044    7.4068 LP  0  0  0  0  0  0  0  0  0  0  0  0  # atno 4300 bound_to 2456
    2.3900   -7.4576    4.8776 LP  0  0  0  0  0  0  0  0  0  0  0  0  # atno 4301 bound_to 2510
    2.8010   -9.0288    4.7065 LP  0  0  0  0  0  0  0  0  0  0  0  0  # atno 4302 bound_to 2510
   -2.6130  -18.2183   13.8868 LP  0  0  0  0  0  0  0  0  0  0  0  0  # atno 4306 bound_to 3712
   -3.2353  -16.9950   14.7717 LP  0  0  0  0  0  0  0  0  0  0  0  0  # atno 4307 bound_to 3712
    2.7957  -20.0002    8.1555 LP  0  0  0  0  0  0  0  0  0  0  0  0  # atno 4314 bound_to 3832
    2.6241  -21.1558    9.2964 LP  0  0  0  0  0  0  0  0  0  0  0  0  # atno 4315 bound_to 3832
   -3.9080  -23.0347   11.1384 LP  0  0  0  0  0  0  0  0  0  0  0  0  # atno 4318 bound_to 3762
   -5.1415  -22.9232   10.0741 LP  0  0  0  0  0  0  0  0  0  0  0  0  # atno 4319 bound_to 3762
   -4.6859   -5.4593    9.4229 LP  0  0  0  0  0  0  0  0  0  0  0  0  # atno 4320 bound_to 2467
   -5.3216   -5.0117    7.9868 LP  0  0  0  0  0  0  0  0  0  0  0  0  # atno 4321 bound_to 2467

> <Gold.Score>
     Score     S(PLP)   S(hbond)     S(cho)   S(metal)  DE(clash)   DE(tors)     intcor
     46.67     -43.79       1.00       0.00       0.00       1.10       0.07       1.11

> <Gold.PLP.Fitness>
46.6702

> <Gold.PLP.PLP>
-43.7938

> <Gold.PLP.part.hbond>
-1.0000

> <Gold.PLP.part.metal>
0.0000

> <Gold.PLP.part.buried>
-1.5145

> <Gold.PLP.part.nonpolar>
-41.1675

> <Gold.PLP.part.repulsive>
0.0347

> <Gold.PLP.ligand.clash>
1.1039

> <Gold.PLP.ligand.torsion>
0.0670

> <Gold.PLP.Chemscore.Hbond>
1.0000

> <Gold.PLP.Chemscore.CHOScore>
0.0000

> <Gold.PLP.Chemscore.Metal>
0.0000

> <Gold.Chemscore.Hbonds>
donor molecule, donor type, donor heavy atom, donor atom, acceptor molecule, acceptor atom, score
      P1  H  2456  2461       L1     6  1.00

> <Gold.PLP.Chemscore.Internal.Correction>
1.1144

