#       Name:                EN300-64755_i001
#       Creating user name   fsindt
#       Creation time:       Wed Mar  1 23:48:47 2023


#       File generated by GOLD software.
#

@<TRIPOS>MOLECULE
EN300-64755_i001|acide_1|mol2|10628|dock15
    23    23     1
SMALL
USER_CHARGES


@<TRIPOS>ATOM
      1 C1           2.0879 -16.6036  12.9044 C.3            1 <1>                0.0000
      2 C2           0.5711 -16.5949  12.7039 C.3            1 <1>                0.0000
      3 C3           0.1453 -17.8727  11.9782 C.3            1 <1>                0.0000
      4 C4          -0.1126 -16.5275  14.0453 C.2            1 <1>                0.0000
      5 O5          -0.8861 -17.4084  14.3802 O.co2          1 <1>                0.0000
      6 O6           0.1079 -15.5919  14.7954 O.co2          1 <1>               -1.0000
      7 C7           0.1802 -15.3952  11.8800 C.ar           1 <1>                0.0000
      8 C8          -0.6434 -14.4250  12.4195 C.ar           1 <1>                0.0000
      9 C9          -1.0023 -13.3241  11.6641 C.ar           1 <1>                0.0000
     10 C10         -0.5378 -13.1932  10.3691 C.ar           1 <1>                0.0000
     11 C11          0.2869 -14.1638   9.8288 C.ar           1 <1>                0.0000
     12 Br12         0.9228 -13.9852   8.0570 Br             1 <1>                0.0000
     13 C13          0.6499 -15.2622  10.5867 C.ar           1 <1>                0.0000
     14 H14          2.5823 -16.6524  11.9342 H              1 <1>                0.0000
     15 H15          2.3913 -15.6932  13.4215 H              1 <1>                0.0000
     16 H16          2.3706 -17.4713  13.5003 H              1 <1>                0.0000
     17 H17          0.4281 -18.7405  12.5741 H              1 <1>                0.0000
     18 H18         -0.9353 -17.8666  11.8353 H              1 <1>                0.0000
     19 H19          0.6397 -17.9215  11.0080 H              1 <1>                0.0000
     20 H20         -1.0068 -14.5272  13.4314 H              1 <1>                0.0000
     21 H21         -1.6461 -12.5665  12.0859 H              1 <1>                0.0000
     22 H22         -0.8189 -12.3335   9.7788 H              1 <1>                0.0000
     23 H23          1.2936 -16.0202  10.1653 H              1 <1>                0.0000
@<TRIPOS>BOND
    1    1    2 1     
    2    1   14 1     
    3    1   15 1     
    4    1   16 1     
    5    2    3 1     
    6    2    4 1     
    7    2    7 1     
    8    3   17 1     
    9    3   18 1     
   10    3   19 1     
   11    4    5 ar    
   12    4    6 ar    
   13    7    8 ar    
   14    7   13 ar    
   15    8    9 ar    
   16    8   20 1     
   17    9   10 ar    
   18    9   21 1     
   19   10   11 ar    
   20   10   22 1     
   21   11   12 1     
   22   11   13 ar    
   23   13   23 1     
@<TRIPOS>SUBSTRUCTURE
      1 ****           1
@<TRIPOS>COMMENT
> <Gold.Version>
2022.2.0

> <Gold.Id.Protein>
3pbl|protein|mol2

> <Gold.Protein.RotatedTorsions>
[ 1303 1298 1297 1294 ] final  110.47 input  179.99 | X-H torsion
[ 2461 2456 2455 2452 ] final   72.46 input   30.03 | X-H torsion
[ 2515 2510 2509 2506 ] final   -8.41 input  -89.99 | X-H torsion
[ 3721 3712 3711 3710 ] final    4.48 input -179.91 | X-H torsion
[ 3841 3832 3831 3830 ] final -114.24 input -179.91 | X-H torsion
[ 3767 3762 3761 3758 ] final   33.89 input  -89.99 | X-H torsion
[ 2472 2467 2466 2463 ] final   89.32 input  -89.97 | X-H torsion

> <Gold.Protein.ActiveResidues>
 VAL82   VAL86   LEU89   PHE106  VAL107  ASP110  VAL111  MET112  CYS114  THR115 
 CYS181  SER182  ILE183  PHE188  VAL189  ILE190  SER192  SER193  SER196  TRP342 
 PHE345  PHE346  HIS349  VAL350  TYR365  THR369  GLY372  TYR373 

> <Gold.Protein.RotatedAtoms>
    4.6529   -9.8989    4.9379 H   0  0  0  0  0  0  0  0  0  0  0  0  # atno 1303 bound_to 1298
    2.0350   -8.1266    7.5159 H   0  0  0  0  0  0  0  0  0  0  0  0  # atno 2461 bound_to 2456
   -5.0919   -4.9161    7.7896 H   0  0  0  0  0  0  0  0  0  0  0  0  # atno 2472 bound_to 2467
    2.5966   -7.7243    4.5246 H   0  0  0  0  0  0  0  0  0  0  0  0  # atno 2515 bound_to 2510
   -2.4788  -17.9806   14.1796 H   0  0  0  0  0  0  0  0  0  0  0  0  # atno 3721 bound_to 3712
   -4.9310  -23.0940   10.0696 H   0  0  0  0  0  0  0  0  0  0  0  0  # atno 3767 bound_to 3762
    2.1465  -19.5831    8.4957 H   0  0  0  0  0  0  0  0  0  0  0  0  # atno 3841 bound_to 3832
    3.3477   -9.7422    3.9694 LP  0  0  0  0  0  0  0  0  0  0  0  0  # atno 4297 bound_to 1298
    4.3614   -8.4801    4.1841 LP  0  0  0  0  0  0  0  0  0  0  0  0  # atno 4298 bound_to 1298
    0.4495   -8.4130    7.2485 LP  0  0  0  0  0  0  0  0  0  0  0  0  # atno 4299 bound_to 2456
    1.2535   -9.2684    8.3837 LP  0  0  0  0  0  0  0  0  0  0  0  0  # atno 4300 bound_to 2456
    2.6693   -9.2403    5.1266 LP  0  0  0  0  0  0  0  0  0  0  0  0  # atno 4301 bound_to 2510
    2.0307   -8.0349    6.0243 LP  0  0  0  0  0  0  0  0  0  0  0  0  # atno 4302 bound_to 2510
   -3.4155  -16.7204   14.5147 LP  0  0  0  0  0  0  0  0  0  0  0  0  # atno 4306 bound_to 3712
   -3.2504  -17.2470   12.9778 LP  0  0  0  0  0  0  0  0  0  0  0  0  # atno 4307 bound_to 3712
    3.0917  -20.8571    8.7394 LP  0  0  0  0  0  0  0  0  0  0  0  0  # atno 4314 bound_to 3832
    1.6581  -20.7268    9.5104 LP  0  0  0  0  0  0  0  0  0  0  0  0  # atno 4315 bound_to 3832
   -5.2657  -21.9285   11.1634 LP  0  0  0  0  0  0  0  0  0  0  0  0  # atno 4318 bound_to 3762
   -3.9307  -22.8527   11.3377 LP  0  0  0  0  0  0  0  0  0  0  0  0  # atno 4319 bound_to 3762
   -3.6365   -5.0195    8.5228 LP  0  0  0  0  0  0  0  0  0  0  0  0  # atno 4320 bound_to 2467
   -4.9887   -5.4579    9.3266 LP  0  0  0  0  0  0  0  0  0  0  0  0  # atno 4321 bound_to 2467

> <Gold.Score>
     Score     S(PLP)   S(hbond)     S(cho)   S(metal)  DE(clash)   DE(tors)     intcor
     41.85     -37.25       1.66       0.00       0.00       1.44       0.02       1.11

> <Gold.PLP.Fitness>
41.8506

> <Gold.PLP.PLP>
-37.2484

> <Gold.PLP.part.hbond>
-1.6479

> <Gold.PLP.part.metal>
0.0000

> <Gold.PLP.part.buried>
-3.1500

> <Gold.PLP.part.nonpolar>
-33.3897

> <Gold.PLP.part.repulsive>
0.1360

> <Gold.PLP.ligand.clash>
1.4370

> <Gold.PLP.ligand.torsion>
0.0216

> <Gold.PLP.Chemscore.Hbond>
1.6560

> <Gold.PLP.Chemscore.CHOScore>
0.0000

> <Gold.PLP.Chemscore.Metal>
0.0000

> <Gold.Chemscore.Hbonds>
donor molecule, donor type, donor heavy atom, donor atom, acceptor molecule, acceptor atom, score
      P1  H  2305  2313       L1     6  1.00
      P1  H  3712  3721       L1     5  0.66

> <Gold.PLP.Chemscore.Internal.Correction>
1.1144

