#       Name:                EN300-64755_i001
#       Creating user name   fsindt
#       Creation time:       Wed Mar  1 23:48:44 2023


#       File generated by GOLD software.
#

@<TRIPOS>MOLECULE
EN300-64755_i001|acide_1|mol2|10628|dock3
    23    23     1
SMALL
USER_CHARGES


@<TRIPOS>ATOM
      1 C1           1.9986 -16.4848  12.8479 C.3            1 <1>                0.0000
      2 C2           1.3655 -17.4298  13.8711 C.3            1 <1>                0.0000
      3 C3           2.3616 -17.6998  15.0006 C.3            1 <1>                0.0000
      4 C4           0.1221 -16.7953  14.4390 C.2            1 <1>                0.0000
      5 O5          -0.6916 -17.4778  15.0377 O.co2          1 <1>                0.0000
      6 O6          -0.0700 -15.5994  14.2995 O.co2          1 <1>               -1.0000
      7 C7           1.0042 -18.7291  13.1986 C.ar           1 <1>                0.0000
      8 C8           0.3162 -18.7188  11.9998 C.ar           1 <1>                0.0000
      9 C9          -0.0155 -19.9106  11.3824 C.ar           1 <1>                0.0000
     10 C10          0.3407 -21.1127  11.9637 C.ar           1 <1>                0.0000
     11 C11          1.0297 -21.1235  13.1633 C.ar           1 <1>                0.0000
     12 Br12         1.5174 -22.7681  13.9591 Br             1 <1>                0.0000
     13 C13          1.3659 -19.9310  13.7779 C.ar           1 <1>                0.0000
     14 H14          2.8980 -16.9437  12.4371 H              1 <1>                0.0000
     15 H15          1.2890 -16.2924  12.0432 H              1 <1>                0.0000
     16 H16          2.2600 -15.5450  13.3342 H              1 <1>                0.0000
     17 H17          2.6231 -16.7600  15.4869 H              1 <1>                0.0000
     18 H18          1.9107 -18.3731  15.7295 H              1 <1>                0.0000
     19 H19          3.2610 -18.1588  14.5899 H              1 <1>                0.0000
     20 H20          0.0374 -17.7795  11.5455 H              1 <1>                0.0000
     21 H21         -0.5534 -19.9021  10.4459 H              1 <1>                0.0000
     22 H22          0.0809 -22.0437  11.4816 H              1 <1>                0.0000
     23 H23          1.9037 -19.9390  14.7144 H              1 <1>                0.0000
@<TRIPOS>BOND
    1    1    2 1     
    2    1   14 1     
    3    1   15 1     
    4    1   16 1     
    5    2    3 1     
    6    2    4 1     
    7    2    7 1     
    8    3   17 1     
    9    3   18 1     
   10    3   19 1     
   11    4    5 ar    
   12    4    6 ar    
   13    7    8 ar    
   14    7   13 ar    
   15    8    9 ar    
   16    8   20 1     
   17    9   10 ar    
   18    9   21 1     
   19   10   11 ar    
   20   10   22 1     
   21   11   12 1     
   22   11   13 ar    
   23   13   23 1     
@<TRIPOS>SUBSTRUCTURE
      1 ****           1
@<TRIPOS>COMMENT
> <Gold.Version>
2022.2.0

> <Gold.Id.Protein>
3pbl|protein|mol2

> <Gold.Protein.RotatedTorsions>
[ 1303 1298 1297 1294 ] final  104.78 input  179.99 | X-H torsion
[ 2461 2456 2455 2452 ] final   -5.81 input   30.03 | X-H torsion
[ 2515 2510 2509 2506 ] final  131.89 input  -89.99 | X-H torsion
[ 3721 3712 3711 3710 ] final  -22.89 input -179.91 | X-H torsion
[ 3841 3832 3831 3830 ] final   41.17 input -179.91 | X-H torsion
[ 3767 3762 3761 3758 ] final   85.57 input  -89.99 | X-H torsion
[ 2472 2467 2466 2463 ] final  -39.45 input  -89.97 | X-H torsion

> <Gold.Protein.ActiveResidues>
 VAL82   VAL86   LEU89   PHE106  VAL107  ASP110  VAL111  MET112  CYS114  THR115 
 CYS181  SER182  ILE183  PHE188  VAL189  ILE190  SER192  SER193  SER196  TRP342 
 PHE345  PHE346  HIS349  VAL350  TYR365  THR369  GLY372  TYR373 

> <Gold.Protein.RotatedAtoms>
    4.5923   -9.9685    4.9228 H   0  0  0  0  0  0  0  0  0  0  0  0  # atno 1303 bound_to 1298
    0.9517   -8.0222    7.0335 H   0  0  0  0  0  0  0  0  0  0  0  0  # atno 2461 bound_to 2456
   -3.6382   -5.0692    8.6581 H   0  0  0  0  0  0  0  0  0  0  0  0  # atno 2472 bound_to 2467
    2.0705   -8.3570    6.0950 H   0  0  0  0  0  0  0  0  0  0  0  0  # atno 2515 bound_to 2510
   -2.5667  -17.7740   14.5225 H   0  0  0  0  0  0  0  0  0  0  0  0  # atno 3721 bound_to 3712
   -4.2418  -23.3344   10.4477 H   0  0  0  0  0  0  0  0  0  0  0  0  # atno 3767 bound_to 3762
    2.2136  -20.8628    9.5999 H   0  0  0  0  0  0  0  0  0  0  0  0  # atno 3841 bound_to 3832
    3.3348   -9.6591    3.9282 LP  0  0  0  0  0  0  0  0  0  0  0  0  # atno 4297 bound_to 1298
    4.4349   -8.4934    4.2404 LP  0  0  0  0  0  0  0  0  0  0  0  0  # atno 4298 bound_to 1298
    0.6424   -9.2095    8.1115 LP  0  0  0  0  0  0  0  0  0  0  0  0  # atno 4299 bound_to 2456
    2.1436   -8.5762    8.0029 LP  0  0  0  0  0  0  0  0  0  0  0  0  # atno 4300 bound_to 2456
    2.4584   -7.5205    4.7476 LP  0  0  0  0  0  0  0  0  0  0  0  0  # atno 4301 bound_to 2510
    2.7680   -9.1216    4.8322 LP  0  0  0  0  0  0  0  0  0  0  0  0  # atno 4302 bound_to 2510
   -3.5399  -16.5664   14.1072 LP  0  0  0  0  0  0  0  0  0  0  0  0  # atno 4306 bound_to 3712
   -3.0245  -17.6395   12.9894 LP  0  0  0  0  0  0  0  0  0  0  0  0  # atno 4307 bound_to 3712
    1.6056  -19.7245    8.6456 LP  0  0  0  0  0  0  0  0  0  0  0  0  # atno 4314 bound_to 3832
    3.0668  -20.3811    8.3287 LP  0  0  0  0  0  0  0  0  0  0  0  0  # atno 4315 bound_to 3832
   -5.5075  -22.3028   10.4729 LP  0  0  0  0  0  0  0  0  0  0  0  0  # atno 4318 bound_to 3762
   -4.3779  -22.2381   11.6504 LP  0  0  0  0  0  0  0  0  0  0  0  0  # atno 4319 bound_to 3762
   -5.1117   -5.4449    9.2531 LP  0  0  0  0  0  0  0  0  0  0  0  0  # atno 4320 bound_to 2467
   -4.9669   -4.8794    7.7280 LP  0  0  0  0  0  0  0  0  0  0  0  0  # atno 4321 bound_to 2467

> <Gold.Score>
     Score     S(PLP)   S(hbond)     S(cho)   S(metal)  DE(clash)   DE(tors)     intcor
     40.04     -35.70       1.97       0.00       0.00       0.65       1.01       1.11

> <Gold.PLP.Fitness>
40.0436

> <Gold.PLP.PLP>
-35.7028

> <Gold.PLP.part.hbond>
-2.0000

> <Gold.PLP.part.metal>
0.0000

> <Gold.PLP.part.buried>
-4.0790

> <Gold.PLP.part.nonpolar>
-30.0307

> <Gold.PLP.part.repulsive>
0.1159

> <Gold.PLP.ligand.clash>
0.6470

> <Gold.PLP.ligand.torsion>
1.0142

> <Gold.PLP.Chemscore.Hbond>
1.9673

> <Gold.PLP.Chemscore.CHOScore>
0.0000

> <Gold.PLP.Chemscore.Metal>
0.0000

> <Gold.Chemscore.Hbonds>
donor molecule, donor type, donor heavy atom, donor atom, acceptor molecule, acceptor atom, score
      P1  H  2305  2313       L1     6  0.99
      P1  H  3712  3721       L1     5  0.98

> <Gold.PLP.Chemscore.Internal.Correction>
1.1144

