#       Name:                EN300-64755_i001
#       Creating user name   fsindt
#       Creation time:       Wed Mar  1 23:48:45 2023


#       File generated by GOLD software.
#

@<TRIPOS>MOLECULE
EN300-64755_i001|acide_1|mol2|10628|dock9
    23    23     1
SMALL
USER_CHARGES


@<TRIPOS>ATOM
      1 C1           0.1994 -16.1547  11.8199 C.3            1 <1>                0.0000
      2 C2           0.7900 -17.0695  12.8946 C.3            1 <1>                0.0000
      3 C3           2.2899 -16.7981  13.0274 C.3            1 <1>                0.0000
      4 C4           0.1119 -16.7987  14.2130 C.2            1 <1>                0.0000
      5 O5           0.1487 -15.6812  14.6992 O.co2          1 <1>                0.0000
      6 O6          -0.4734 -17.6972  14.7932 O.co2          1 <1>               -1.0000
      7 C7           0.5726 -18.5087  12.5042 C.ar           1 <1>                0.0000
      8 C8          -0.1867 -18.8155  11.3907 C.ar           1 <1>                0.0000
      9 C9          -0.3866 -20.1356  11.0320 C.ar           1 <1>                0.0000
     10 C10          0.1729 -21.1492  11.7867 C.ar           1 <1>                0.0000
     11 C11          0.9334 -20.8427  12.9010 C.ar           1 <1>                0.0000
     12 Br12         1.6992 -22.2291  13.9340 Br             1 <1>                0.0000
     13 C13          1.1373 -19.5217  13.2564 C.ar           1 <1>                0.0000
     14 H14          0.6899 -16.3506  10.8664 H              1 <1>                0.0000
     15 H15         -0.8692 -16.3480  11.7253 H              1 <1>                0.0000
     16 H16          0.3567 -15.1138  12.1022 H              1 <1>                0.0000
     17 H17          2.4472 -15.7572  13.3097 H              1 <1>                0.0000
     18 H18          2.7107 -17.4499  13.7930 H              1 <1>                0.0000
     19 H19          2.7804 -16.9940  12.0739 H              1 <1>                0.0000
     20 H20         -0.6244 -18.0236  10.8009 H              1 <1>                0.0000
     21 H21         -0.9802 -20.3749  10.1620 H              1 <1>                0.0000
     22 H22          0.0162 -22.1806  11.5068 H              1 <1>                0.0000
     23 H23          1.7309 -19.2820  14.1262 H              1 <1>                0.0000
@<TRIPOS>BOND
    1    1    2 1     
    2    1   14 1     
    3    1   15 1     
    4    1   16 1     
    5    2    3 1     
    6    2    4 1     
    7    2    7 1     
    8    3   17 1     
    9    3   18 1     
   10    3   19 1     
   11    4    5 ar    
   12    4    6 ar    
   13    7    8 ar    
   14    7   13 ar    
   15    8    9 ar    
   16    8   20 1     
   17    9   10 ar    
   18    9   21 1     
   19   10   11 ar    
   20   10   22 1     
   21   11   12 1     
   22   11   13 ar    
   23   13   23 1     
@<TRIPOS>SUBSTRUCTURE
      1 ****           1
@<TRIPOS>COMMENT
> <Gold.Version>
2022.2.0

> <Gold.Id.Protein>
3pbl|protein|mol2

> <Gold.Protein.RotatedTorsions>
[ 1303 1298 1297 1294 ] final   -7.71 input  179.99 | X-H torsion
[ 2461 2456 2455 2452 ] final  -75.53 input   30.03 | X-H torsion
[ 2515 2510 2509 2506 ] final  -72.47 input  -89.99 | X-H torsion
[ 3721 3712 3711 3710 ] final  -16.78 input -179.91 | X-H torsion
[ 3841 3832 3831 3830 ] final   13.06 input -179.91 | X-H torsion
[ 3767 3762 3761 3758 ] final   60.87 input  -89.99 | X-H torsion
[ 2472 2467 2466 2463 ] final  163.52 input  -89.97 | X-H torsion

> <Gold.Protein.ActiveResidues>
 VAL82   VAL86   LEU89   PHE106  VAL107  ASP110  VAL111  MET112  CYS114  THR115 
 CYS181  SER182  ILE183  PHE188  VAL189  ILE190  SER192  SER193  SER196  TRP342 
 PHE345  PHE346  HIS349  VAL350  TYR365  THR369  GLY372  TYR373 

> <Gold.Protein.RotatedAtoms>
    3.3533   -9.7679    3.9839 H   0  0  0  0  0  0  0  0  0  0  0  0  # atno 1303 bound_to 1298
    0.3307   -8.7445    7.5383 H   0  0  0  0  0  0  0  0  0  0  0  0  # atno 2461 bound_to 2456
   -5.4649   -5.3165    8.7867 H   0  0  0  0  0  0  0  0  0  0  0  0  # atno 2472 bound_to 2467
    2.8356   -8.6923    4.4528 H   0  0  0  0  0  0  0  0  0  0  0  0  # atno 2515 bound_to 2510
   -2.5395  -17.8318   14.4558 H   0  0  0  0  0  0  0  0  0  0  0  0  # atno 3721 bound_to 3712
   -4.5571  -23.2851   10.2010 H   0  0  0  0  0  0  0  0  0  0  0  0  # atno 3767 bound_to 3762
    1.8644  -20.6287    9.6066 H   0  0  0  0  0  0  0  0  0  0  0  0  # atno 3841 bound_to 3832
    4.3374   -8.4776    4.1665 LP  0  0  0  0  0  0  0  0  0  0  0  0  # atno 4297 bound_to 1298
    4.6717   -9.8757    4.9413 LP  0  0  0  0  0  0  0  0  0  0  0  0  # atno 4298 bound_to 1298
    1.6821   -9.1130    8.3780 LP  0  0  0  0  0  0  0  0  0  0  0  0  # atno 4299 bound_to 2456
    1.7247   -7.9507    7.2318 LP  0  0  0  0  0  0  0  0  0  0  0  0  # atno 4300 bound_to 2456
    2.2421   -8.8912    5.9608 LP  0  0  0  0  0  0  0  0  0  0  0  0  # atno 4301 bound_to 2510
    2.2187   -7.4155    5.2620 LP  0  0  0  0  0  0  0  0  0  0  0  0  # atno 4302 bound_to 2510
   -3.5203  -16.5855   14.2055 LP  0  0  0  0  0  0  0  0  0  0  0  0  # atno 4306 bound_to 3712
   -3.0755  -17.5537   12.9681 LP  0  0  0  0  0  0  0  0  0  0  0  0  # atno 4307 bound_to 3712
    1.9528  -19.6343    8.3498 LP  0  0  0  0  0  0  0  0  0  0  0  0  # atno 4314 bound_to 3832
    3.1229  -20.7417    8.6168 LP  0  0  0  0  0  0  0  0  0  0  0  0  # atno 4315 bound_to 3832
   -5.4672  -22.0677   10.7981 LP  0  0  0  0  0  0  0  0  0  0  0  0  # atno 4318 bound_to 3762
   -4.1030  -22.5225   11.5718 LP  0  0  0  0  0  0  0  0  0  0  0  0  # atno 4319 bound_to 3762
   -4.3750   -4.7992    7.6863 LP  0  0  0  0  0  0  0  0  0  0  0  0  # atno 4320 bound_to 2467
   -3.8772   -5.2778    9.1661 LP  0  0  0  0  0  0  0  0  0  0  0  0  # atno 4321 bound_to 2467

> <Gold.Score>
     Score     S(PLP)   S(hbond)     S(cho)   S(metal)  DE(clash)   DE(tors)     intcor
     40.47     -34.71       1.96       0.00       0.00       0.99       0.12       1.11

> <Gold.PLP.Fitness>
40.4750

> <Gold.PLP.PLP>
-34.7145

> <Gold.PLP.part.hbond>
-2.0000

> <Gold.PLP.part.metal>
0.0000

> <Gold.PLP.part.buried>
-4.4792

> <Gold.PLP.part.nonpolar>
-28.2526

> <Gold.PLP.part.repulsive>
0.1018

> <Gold.PLP.ligand.clash>
0.9874

> <Gold.PLP.ligand.torsion>
0.1233

> <Gold.PLP.Chemscore.Hbond>
1.9600

> <Gold.PLP.Chemscore.CHOScore>
0.0000

> <Gold.PLP.Chemscore.Metal>
0.0000

> <Gold.Chemscore.Hbonds>
donor molecule, donor type, donor heavy atom, donor atom, acceptor molecule, acceptor atom, score
      P1  H  2305  2313       L1     5  1.00
      P1  H  3712  3721       L1     6  0.96

> <Gold.PLP.Chemscore.Internal.Correction>
1.1144

