#       Name:                EN300-64755_i001
#       Creating user name   fsindt
#       Creation time:       Wed Mar  1 23:48:44 2023


#       File generated by GOLD software.
#

@<TRIPOS>MOLECULE
EN300-64755_i001|acide_1|mol2|10628|dock6
    23    23     1
SMALL
USER_CHARGES


@<TRIPOS>ATOM
      1 C1          -0.6971 -13.7554   7.5043 C.3            1 <1>                0.0000
      2 C2           0.2851 -12.8275   8.2221 C.3            1 <1>                0.0000
      3 C3           1.2618 -13.6627   9.0525 C.3            1 <1>                0.0000
      4 C4           1.0517 -12.0230   7.2041 C.2            1 <1>                0.0000
      5 O5           1.6819 -12.5902   6.3280 O.co2          1 <1>                0.0000
      6 O6           1.0415 -10.8050   7.2568 O.co2          1 <1>               -1.0000
      7 C7          -0.4760 -11.8954   9.1293 C.ar           1 <1>                0.0000
      8 C8           0.2076 -11.0658   9.9982 C.ar           1 <1>                0.0000
      9 C9          -0.4901 -10.2103  10.8307 C.ar           1 <1>                0.0000
     10 C10         -1.8714 -10.1844  10.7944 C.ar           1 <1>                0.0000
     11 C11         -2.5560 -11.0143   9.9245 C.ar           1 <1>                0.0000
     12 Br12        -4.4459 -10.9793   9.8743 Br             1 <1>                0.0000
     13 C13         -1.8574 -11.8660   9.0882 C.ar           1 <1>                0.0000
     14 H14         -1.2515 -14.3373   8.2406 H              1 <1>                0.0000
     15 H15         -1.3929 -13.1604   6.9128 H              1 <1>                0.0000
     16 H16         -0.1467 -14.4296   6.8482 H              1 <1>                0.0000
     17 H17          1.8121 -14.3370   8.3963 H              1 <1>                0.0000
     18 H18          1.9614 -13.0017   9.5639 H              1 <1>                0.0000
     19 H19          0.7073 -14.2446   9.7888 H              1 <1>                0.0000
     20 H20          1.2870 -11.0860  10.0271 H              1 <1>                0.0000
     21 H21          0.0444  -9.5625  11.5097 H              1 <1>                0.0000
     22 H22         -2.4163  -9.5167  11.4452 H              1 <1>                0.0000
     23 H23         -2.3914 -12.5141   8.4091 H              1 <1>                0.0000
@<TRIPOS>BOND
    1    1    2 1     
    2    1   14 1     
    3    1   15 1     
    4    1   16 1     
    5    2    3 1     
    6    2    4 1     
    7    2    7 1     
    8    3   17 1     
    9    3   18 1     
   10    3   19 1     
   11    4    5 ar    
   12    4    6 ar    
   13    7    8 ar    
   14    7   13 ar    
   15    8    9 ar    
   16    8   20 1     
   17    9   10 ar    
   18    9   21 1     
   19   10   11 ar    
   20   10   22 1     
   21   11   12 1     
   22   11   13 ar    
   23   13   23 1     
@<TRIPOS>SUBSTRUCTURE
      1 ****           1
@<TRIPOS>COMMENT
> <Gold.Version>
2022.2.0

> <Gold.Id.Protein>
3pbl|protein|mol2

> <Gold.Protein.RotatedTorsions>
[ 1303 1298 1297 1294 ] final -139.83 input  179.99 | X-H torsion
[ 2461 2456 2455 2452 ] final -137.35 input   30.03 | X-H torsion
[ 2515 2510 2509 2506 ] final   37.38 input  -89.99 | X-H torsion
[ 3721 3712 3711 3710 ] final   44.34 input -179.91 | X-H torsion
[ 3841 3832 3831 3830 ] final -104.61 input -179.91 | X-H torsion
[ 3767 3762 3761 3758 ] final   48.23 input  -89.99 | X-H torsion
[ 2472 2467 2466 2463 ] final  124.67 input  -89.97 | X-H torsion

> <Gold.Protein.ActiveResidues>
 VAL82   VAL86   LEU89   PHE106  VAL107  ASP110  VAL111  MET112  CYS114  THR115 
 CYS181  SER182  ILE183  PHE188  VAL189  ILE190  SER192  SER193  SER196  TRP342 
 PHE345  PHE346  HIS349  VAL350  TYR365  THR369  GLY372  TYR373 

> <Gold.Protein.RotatedAtoms>
    4.4919   -8.5107    4.2873 H   0  0  0  0  0  0  0  0  0  0  0  0  # atno 1303 bound_to 1298
    0.7921   -9.2614    8.2157 H   0  0  0  0  0  0  0  0  0  0  0  0  # atno 2461 bound_to 2456
   -5.4478   -5.1023    8.1976 H   0  0  0  0  0  0  0  0  0  0  0  0  # atno 2472 bound_to 2467
    2.2827   -7.4099    5.1081 H   0  0  0  0  0  0  0  0  0  0  0  0  # atno 2515 bound_to 2510
   -2.5216  -17.9973   13.5908 H   0  0  0  0  0  0  0  0  0  0  0  0  # atno 3721 bound_to 3712
   -4.7333  -23.2115   10.1191 H   0  0  0  0  0  0  0  0  0  0  0  0  # atno 3767 bound_to 3762
    2.0221  -19.5812    8.5710 H   0  0  0  0  0  0  0  0  0  0  0  0  # atno 3841 bound_to 3832
    4.5401  -10.0210    4.9062 LP  0  0  0  0  0  0  0  0  0  0  0  0  # atno 4297 bound_to 1298
    3.3300   -9.5899    3.8980 LP  0  0  0  0  0  0  0  0  0  0  0  0  # atno 4298 bound_to 1298
    2.1612   -8.4396    7.8726 LP  0  0  0  0  0  0  0  0  0  0  0  0  # atno 4299 bound_to 2456
    0.7843   -8.1074    7.0600 LP  0  0  0  0  0  0  0  0  0  0  0  0  # atno 4300 bound_to 2456
    2.8317   -8.8370    4.5356 LP  0  0  0  0  0  0  0  0  0  0  0  0  # atno 4301 bound_to 2510
    2.1824   -8.7527    6.0316 LP  0  0  0  0  0  0  0  0  0  0  0  0  # atno 4302 bound_to 2510
   -3.1145  -17.1940   14.8482 LP  0  0  0  0  0  0  0  0  0  0  0  0  # atno 4306 bound_to 3712
   -3.5020  -16.7541   13.3240 LP  0  0  0  0  0  0  0  0  0  0  0  0  # atno 4307 bound_to 3712
    3.1217  -20.7491    8.6241 LP  0  0  0  0  0  0  0  0  0  0  0  0  # atno 4314 bound_to 3832
    1.7717  -20.8369    9.5387 LP  0  0  0  0  0  0  0  0  0  0  0  0  # atno 4315 bound_to 3832
   -5.3914  -21.9848   10.9727 LP  0  0  0  0  0  0  0  0  0  0  0  0  # atno 4318 bound_to 3762
   -4.0027  -22.6790   11.4790 LP  0  0  0  0  0  0  0  0  0  0  0  0  # atno 4319 bound_to 3762
   -3.8436   -4.8588    8.0139 LP  0  0  0  0  0  0  0  0  0  0  0  0  # atno 4320 bound_to 2467
   -4.4257   -5.4324    9.4276 LP  0  0  0  0  0  0  0  0  0  0  0  0  # atno 4321 bound_to 2467

> <Gold.Score>
     Score     S(PLP)   S(hbond)     S(cho)   S(metal)  DE(clash)   DE(tors)     intcor
     51.33     -50.10       0.48       0.00       0.00       0.91       0.21       1.11

> <Gold.PLP.Fitness>
51.3283

> <Gold.PLP.PLP>
-50.1004

> <Gold.PLP.part.hbond>
-0.7652

> <Gold.PLP.part.metal>
0.0000

> <Gold.PLP.part.buried>
-4.2278

> <Gold.PLP.part.nonpolar>
-45.5447

> <Gold.PLP.part.repulsive>
0.1624

> <Gold.PLP.ligand.clash>
0.9101

> <Gold.PLP.ligand.torsion>
0.2082

> <Gold.PLP.Chemscore.Hbond>
0.4800

> <Gold.PLP.Chemscore.CHOScore>
0.0000

> <Gold.PLP.Chemscore.Metal>
0.0000

> <Gold.Chemscore.Hbonds>
donor molecule, donor type, donor heavy atom, donor atom, acceptor molecule, acceptor atom, score
      P1  H  2456  2461       L1     6  0.48

> <Gold.PLP.Chemscore.Internal.Correction>
1.1144

