#       Name:                EN300-64755_i001
#       Creating user name   fsindt
#       Creation time:       Wed Mar  1 23:48:45 2023


#       File generated by GOLD software.
#

@<TRIPOS>MOLECULE
EN300-64755_i001|acide_1|mol2|10628|dock7
    23    23     1
SMALL
USER_CHARGES


@<TRIPOS>ATOM
      1 C1           2.4555 -17.2922  13.3668 C.3            1 <1>                0.0000
      2 C2           1.3008 -18.0712  13.9998 C.3            1 <1>                0.0000
      3 C3           1.8242 -18.8866  15.1839 C.3            1 <1>                0.0000
      4 C4           0.2478 -17.1062  14.4807 C.2            1 <1>                0.0000
      5 O5          -0.7738 -17.5262  14.9970 O.co2          1 <1>                0.0000
      6 O6           0.4175 -15.9056  14.3534 O.co2          1 <1>               -1.0000
      7 C7           0.7008 -19.0003  12.9761 C.ar           1 <1>                0.0000
      8 C8           0.6431 -20.3586  13.2255 C.ar           1 <1>                0.0000
      9 C9           0.0927 -21.2114  12.2867 C.ar           1 <1>                0.0000
     10 C10         -0.4000 -20.7061  11.0986 C.ar           1 <1>                0.0000
     11 C11         -0.3429 -19.3466  10.8487 C.ar           1 <1>                0.0000
     12 Br12        -1.0169 -18.6546   9.2231 Br             1 <1>                0.0000
     13 C13          0.2030 -18.4933  11.7904 C.ar           1 <1>                0.0000
     14 H14          3.2171 -17.9901  13.0190 H              1 <1>                0.0000
     15 H15          2.0826 -16.7113  12.5233 H              1 <1>                0.0000
     16 H16          2.8894 -16.6202  14.1072 H              1 <1>                0.0000
     17 H17          2.2582 -18.2146  15.9242 H              1 <1>                0.0000
     18 H18          1.0016 -19.4416  15.6348 H              1 <1>                0.0000
     19 H19          2.5858 -19.5845  14.8361 H              1 <1>                0.0000
     20 H20          1.0284 -20.7539  14.1538 H              1 <1>                0.0000
     21 H21          0.0482 -22.2727  12.4818 H              1 <1>                0.0000
     22 H22         -0.8292 -21.3725  10.3650 H              1 <1>                0.0000
     23 H23          0.2478 -17.4319  11.5957 H              1 <1>                0.0000
@<TRIPOS>BOND
    1    1    2 1     
    2    1   14 1     
    3    1   15 1     
    4    1   16 1     
    5    2    3 1     
    6    2    4 1     
    7    2    7 1     
    8    3   17 1     
    9    3   18 1     
   10    3   19 1     
   11    4    5 ar    
   12    4    6 ar    
   13    7    8 ar    
   14    7   13 ar    
   15    8    9 ar    
   16    8   20 1     
   17    9   10 ar    
   18    9   21 1     
   19   10   11 ar    
   20   10   22 1     
   21   11   12 1     
   22   11   13 ar    
   23   13   23 1     
@<TRIPOS>SUBSTRUCTURE
      1 ****           1
@<TRIPOS>COMMENT
> <Gold.Version>
2022.2.0

> <Gold.Id.Protein>
3pbl|protein|mol2

> <Gold.Protein.RotatedTorsions>
[ 1303 1298 1297 1294 ] final   49.33 input  179.99 | X-H torsion
[ 2461 2456 2455 2452 ] final   46.03 input   30.03 | X-H torsion
[ 2515 2510 2509 2506 ] final  172.21 input  -89.99 | X-H torsion
[ 3721 3712 3711 3710 ] final  -15.67 input -179.91 | X-H torsion
[ 3841 3832 3831 3830 ] final  -97.51 input -179.91 | X-H torsion
[ 3767 3762 3761 3758 ] final  144.29 input  -89.99 | X-H torsion
[ 2472 2467 2466 2463 ] final   -7.39 input  -89.97 | X-H torsion

> <Gold.Protein.ActiveResidues>
 VAL82   VAL86   LEU89   PHE106  VAL107  ASP110  VAL111  MET112  CYS114  THR115 
 CYS181  SER182  ILE183  PHE188  VAL189  ILE190  SER192  SER193  SER196  TRP342 
 PHE345  PHE346  HIS349  VAL350  TYR365  THR369  GLY372  TYR373 

> <Gold.Protein.RotatedAtoms>
    3.8650  -10.2652    4.5325 H   0  0  0  0  0  0  0  0  0  0  0  0  # atno 1303 bound_to 1298
    1.7459   -7.9565    7.2451 H   0  0  0  0  0  0  0  0  0  0  0  0  # atno 2461 bound_to 2456
   -3.7362   -4.9054    8.1737 H   0  0  0  0  0  0  0  0  0  0  0  0  # atno 2472 bound_to 2467
    2.2721   -8.9493    5.9199 H   0  0  0  0  0  0  0  0  0  0  0  0  # atno 2515 bound_to 2510
   -2.5350  -17.8416   14.4430 H   0  0  0  0  0  0  0  0  0  0  0  0  # atno 3721 bound_to 3712
   -3.9089  -22.9613   11.2255 H   0  0  0  0  0  0  0  0  0  0  0  0  # atno 3767 bound_to 3762
    1.9362  -19.5922    8.6341 H   0  0  0  0  0  0  0  0  0  0  0  0  # atno 3841 bound_to 3832
    3.6001   -8.8340    3.7924 LP  0  0  0  0  0  0  0  0  0  0  0  0  # atno 4297 bound_to 1298
    4.8971   -9.0217    4.7666 LP  0  0  0  0  0  0  0  0  0  0  0  0  # atno 4298 bound_to 1298
    0.3320   -8.7262    7.5203 LP  0  0  0  0  0  0  0  0  0  0  0  0  # atno 4299 bound_to 2456
    1.6601   -9.1253    8.3826 LP  0  0  0  0  0  0  0  0  0  0  0  0  # atno 4300 bound_to 2456
    2.1915   -7.4279    5.3329 LP  0  0  0  0  0  0  0  0  0  0  0  0  # atno 4301 bound_to 2510
    2.8332   -8.6217    4.4221 LP  0  0  0  0  0  0  0  0  0  0  0  0  # atno 4302 bound_to 2510
   -3.5162  -16.5899   14.2230 LP  0  0  0  0  0  0  0  0  0  0  0  0  # atno 4306 bound_to 3712
   -3.0848  -17.5379   12.9654 LP  0  0  0  0  0  0  0  0  0  0  0  0  # atno 4307 bound_to 3712
    3.1283  -20.6630    8.5430 LP  0  0  0  0  0  0  0  0  0  0  0  0  # atno 4314 bound_to 3832
    1.8644  -20.9103    9.5470 LP  0  0  0  0  0  0  0  0  0  0  0  0  # atno 4315 bound_to 3832
   -5.0567  -22.9989   10.0645 LP  0  0  0  0  0  0  0  0  0  0  0  0  # atno 4318 bound_to 3762
   -5.1615  -21.9150   11.2813 LP  0  0  0  0  0  0  0  0  0  0  0  0  # atno 4319 bound_to 3762
   -4.6223   -5.4550    9.4304 LP  0  0  0  0  0  0  0  0  0  0  0  0  # atno 4320 bound_to 2467
   -5.3582   -5.0331    8.0350 LP  0  0  0  0  0  0  0  0  0  0  0  0  # atno 4321 bound_to 2467

> <Gold.Score>
     Score     S(PLP)   S(hbond)     S(cho)   S(metal)  DE(clash)   DE(tors)     intcor
     40.61     -34.71       1.98       0.00       0.00       1.09       0.02       1.11

> <Gold.PLP.Fitness>
40.6099

> <Gold.PLP.PLP>
-34.7079

> <Gold.PLP.part.hbond>
-2.0000

> <Gold.PLP.part.metal>
0.0000

> <Gold.PLP.part.buried>
-3.2780

> <Gold.PLP.part.nonpolar>
-29.5517

> <Gold.PLP.part.repulsive>
0.0632

> <Gold.PLP.ligand.clash>
1.0941

> <Gold.PLP.ligand.torsion>
0.0232

> <Gold.PLP.Chemscore.Hbond>
1.9760

> <Gold.PLP.Chemscore.CHOScore>
0.0000

> <Gold.PLP.Chemscore.Metal>
0.0000

> <Gold.Chemscore.Hbonds>
donor molecule, donor type, donor heavy atom, donor atom, acceptor molecule, acceptor atom, score
      P1  H  2305  2313       L1     6  1.00
      P1  H  3712  3721       L1     5  0.98

> <Gold.PLP.Chemscore.Internal.Correction>
1.1144

