#       Name:                EN300-64755_i001
#       Creating user name   fsindt
#       Creation time:       Wed Mar  1 23:48:47 2023


#       File generated by GOLD software.
#

@<TRIPOS>MOLECULE
EN300-64755_i001|acide_1|mol2|10628|dock14
    23    23     1
SMALL
USER_CHARGES


@<TRIPOS>ATOM
      1 C1          -0.4930 -15.5979  14.0043 C.3            1 <1>                0.0000
      2 C2           0.3000 -16.0672  12.7829 C.3            1 <1>                0.0000
      3 C3           1.7527 -16.3267  13.1869 C.3            1 <1>                0.0000
      4 C4          -0.3073 -17.3384  12.2478 C.2            1 <1>                0.0000
      5 O5          -0.5545 -17.4424  11.0584 O.co2          1 <1>                0.0000
      6 O6          -0.5513 -18.2629  13.0043 O.co2          1 <1>               -1.0000
      7 C7           0.2575 -15.0027  11.7170 C.ar           1 <1>                0.0000
      8 C8           1.1478 -15.0466  10.6607 C.ar           1 <1>                0.0000
      9 C9           1.1093 -14.0703   9.6825 C.ar           1 <1>                0.0000
     10 C10          0.1804 -13.0500   9.7605 C.ar           1 <1>                0.0000
     11 C11         -0.7112 -13.0059  10.8174 C.ar           1 <1>                0.0000
     12 Br12        -1.9824 -11.6101  10.9247 Br             1 <1>                0.0000
     13 C13         -0.6757 -13.9857  11.7929 C.ar           1 <1>                0.0000
     14 H14         -0.0537 -14.6785  14.3914 H              1 <1>                0.0000
     15 H15         -1.5279 -15.4131  13.7165 H              1 <1>                0.0000
     16 H16         -0.4622 -16.3678  14.7752 H              1 <1>                0.0000
     17 H17          1.7835 -17.0965  13.9579 H              1 <1>                0.0000
     18 H18          2.3177 -16.6609  12.3168 H              1 <1>                0.0000
     19 H19          2.1920 -15.4072  13.5739 H              1 <1>                0.0000
     20 H20          1.8741 -15.8437  10.5995 H              1 <1>                0.0000
     21 H21          1.8053 -14.1049   8.8574 H              1 <1>                0.0000
     22 H22          0.1508 -12.2870   8.9967 H              1 <1>                0.0000
     23 H23         -1.3715 -13.9516  12.6181 H              1 <1>                0.0000
@<TRIPOS>BOND
    1    1    2 1     
    2    1   14 1     
    3    1   15 1     
    4    1   16 1     
    5    2    3 1     
    6    2    4 1     
    7    2    7 1     
    8    3   17 1     
    9    3   18 1     
   10    3   19 1     
   11    4    5 ar    
   12    4    6 ar    
   13    7    8 ar    
   14    7   13 ar    
   15    8    9 ar    
   16    8   20 1     
   17    9   10 ar    
   18    9   21 1     
   19   10   11 ar    
   20   10   22 1     
   21   11   12 1     
   22   11   13 ar    
   23   13   23 1     
@<TRIPOS>SUBSTRUCTURE
      1 ****           1
@<TRIPOS>COMMENT
> <Gold.Version>
2022.2.0

> <Gold.Id.Protein>
3pbl|protein|mol2

> <Gold.Protein.RotatedTorsions>
[ 1303 1298 1297 1294 ] final  108.92 input  179.99 | X-H torsion
[ 2461 2456 2455 2452 ] final -121.75 input   30.03 | X-H torsion
[ 2515 2510 2509 2506 ] final  -96.50 input  -89.99 | X-H torsion
[ 3721 3712 3711 3710 ] final   34.95 input -179.91 | X-H torsion
[ 3841 3832 3831 3830 ] final   89.21 input -179.91 | X-H torsion
[ 3767 3762 3761 3758 ] final -119.75 input  -89.99 | X-H torsion
[ 2472 2467 2466 2463 ] final  137.86 input  -89.97 | X-H torsion

> <Gold.Protein.ActiveResidues>
 VAL82   VAL86   LEU89   PHE106  VAL107  ASP110  VAL111  MET112  CYS114  THR115 
 CYS181  SER182  ILE183  PHE188  VAL189  ILE190  SER192  SER193  SER196  TRP342 
 PHE345  PHE346  HIS349  VAL350  TYR365  THR369  GLY372  TYR373 

> <Gold.Protein.RotatedAtoms>
    4.6369   -9.9184    4.9343 H   0  0  0  0  0  0  0  0  0  0  0  0  # atno 1303 bound_to 1298
    0.5949   -9.1855    8.0710 H   0  0  0  0  0  0  0  0  0  0  0  0  # atno 2461 bound_to 2456
   -5.5014   -5.1787    8.3931 H   0  0  0  0  0  0  0  0  0  0  0  0  # atno 2472 bound_to 2467
    2.8062   -9.0080    4.6840 H   0  0  0  0  0  0  0  0  0  0  0  0  # atno 2515 bound_to 2510
   -2.4932  -18.0258   13.7267 H   0  0  0  0  0  0  0  0  0  0  0  0  # atno 3721 bound_to 3712
   -4.8521  -21.9672   11.5174 H   0  0  0  0  0  0  0  0  0  0  0  0  # atno 3767 bound_to 3762
    2.8339  -20.9246    9.2712 H   0  0  0  0  0  0  0  0  0  0  0  0  # atno 3841 bound_to 3832
    3.3434   -9.7199    3.9578 LP  0  0  0  0  0  0  0  0  0  0  0  0  # atno 4297 bound_to 1298
    4.3817   -8.4828    4.1993 LP  0  0  0  0  0  0  0  0  0  0  0  0  # atno 4298 bound_to 1298
    2.1287   -8.6248    8.0463 LP  0  0  0  0  0  0  0  0  0  0  0  0  # atno 4299 bound_to 2456
    1.0139   -7.9980    7.0309 LP  0  0  0  0  0  0  0  0  0  0  0  0  # atno 4300 bound_to 2456
    2.1136   -8.5425    6.0873 LP  0  0  0  0  0  0  0  0  0  0  0  0  # atno 4301 bound_to 2510
    2.3768   -7.4483    4.9042 LP  0  0  0  0  0  0  0  0  0  0  0  0  # atno 4302 bound_to 2510
   -3.1923  -17.0646   14.8062 LP  0  0  0  0  0  0  0  0  0  0  0  0  # atno 4306 bound_to 3712
   -3.4570  -16.8506   13.2091 LP  0  0  0  0  0  0  0  0  0  0  0  0  # atno 4307 bound_to 3712
    1.3956  -20.2145    9.2143 LP  0  0  0  0  0  0  0  0  0  0  0  0  # atno 4314 bound_to 3832
    2.5601  -19.8197    8.1397 LP  0  0  0  0  0  0  0  0  0  0  0  0  # atno 4315 bound_to 3832
   -3.9542  -23.1874   10.9077 LP  0  0  0  0  0  0  0  0  0  0  0  0  # atno 4318 bound_to 3762
   -5.3212  -22.7202   10.1463 LP  0  0  0  0  0  0  0  0  0  0  0  0  # atno 4319 bound_to 3762
   -3.9975   -4.8224    7.8659 LP  0  0  0  0  0  0  0  0  0  0  0  0  # atno 4320 bound_to 2467
   -4.2182   -5.3924    9.3801 LP  0  0  0  0  0  0  0  0  0  0  0  0  # atno 4321 bound_to 2467

> <Gold.Score>
     Score     S(PLP)   S(hbond)     S(cho)   S(metal)  DE(clash)   DE(tors)     intcor
     39.83     -37.81       1.00       0.00       0.00       0.26       0.92       1.11

> <Gold.PLP.Fitness>
39.8264

> <Gold.PLP.PLP>
-37.8079

> <Gold.PLP.part.hbond>
-1.0000

> <Gold.PLP.part.metal>
0.0000

> <Gold.PLP.part.buried>
-1.9347

> <Gold.PLP.part.nonpolar>
-35.6927

> <Gold.PLP.part.repulsive>
0.0905

> <Gold.PLP.ligand.clash>
0.2602

> <Gold.PLP.ligand.torsion>
0.9178

> <Gold.PLP.Chemscore.Hbond>
1.0000

> <Gold.PLP.Chemscore.CHOScore>
0.0000

> <Gold.PLP.Chemscore.Metal>
0.0000

> <Gold.Chemscore.Hbonds>
donor molecule, donor type, donor heavy atom, donor atom, acceptor molecule, acceptor atom, score
      P1  H  3712  3721       L1     6  1.00

> <Gold.PLP.Chemscore.Internal.Correction>
1.1144

