#       Name:                EN300-64755_i001
#       Creating user name   fsindt
#       Creation time:       Wed Mar  1 23:48:45 2023


#       File generated by GOLD software.
#

@<TRIPOS>MOLECULE
EN300-64755_i001|acide_1|mol2|10628|dock8
    23    23     1
SMALL
USER_CHARGES


@<TRIPOS>ATOM
      1 C1          -0.2815  -9.7592  11.1556 C.3            1 <1>                0.0000
      2 C2          -1.3387 -10.7134  10.5964 C.3            1 <1>                0.0000
      3 C3          -2.3155 -11.1006  11.7084 C.3            1 <1>                0.0000
      4 C4          -2.0906 -10.0325   9.4818 C.2            1 <1>                0.0000
      5 O5          -3.3023  -9.9144   9.5471 O.co2          1 <1>                0.0000
      6 O6          -1.4871  -9.5999   8.5148 O.co2          1 <1>               -1.0000
      7 C7          -0.6659 -11.9526  10.0647 C.ar           1 <1>                0.0000
      8 C8          -0.0512 -11.9282   8.8270 C.ar           1 <1>                0.0000
      9 C9           0.5662 -13.0648   8.3387 C.ar           1 <1>                0.0000
     10 C10          0.5689 -14.2260   9.0880 C.ar           1 <1>                0.0000
     11 C11         -0.0458 -14.2508  10.3271 C.ar           1 <1>                0.0000
     12 Br12        -0.0424 -15.8394  11.3530 Br             1 <1>                0.0000
     13 C13         -0.6587 -13.1120  10.8174 C.ar           1 <1>                0.0000
     14 H14          0.2624 -10.2516  11.9617 H              1 <1>                0.0000
     15 H15          0.4145  -9.4833  10.3633 H              1 <1>                0.0000
     16 H16         -0.7680  -8.8629  11.5401 H              1 <1>                0.0000
     17 H17         -2.8020 -10.2042  12.0930 H              1 <1>                0.0000
     18 H18         -3.0687 -11.7804  11.3101 H              1 <1>                0.0000
     19 H19         -1.7717 -11.5930  12.5146 H              1 <1>                0.0000
     20 H20         -0.0534 -11.0210   8.2409 H              1 <1>                0.0000
     21 H21          1.0462 -13.0454   7.3714 H              1 <1>                0.0000
     22 H22          1.0507 -15.1141   8.7062 H              1 <1>                0.0000
     23 H23         -1.1388 -13.1310  11.7846 H              1 <1>                0.0000
@<TRIPOS>BOND
    1    1    2 1     
    2    1   14 1     
    3    1   15 1     
    4    1   16 1     
    5    2    3 1     
    6    2    4 1     
    7    2    7 1     
    8    3   17 1     
    9    3   18 1     
   10    3   19 1     
   11    4    5 ar    
   12    4    6 ar    
   13    7    8 ar    
   14    7   13 ar    
   15    8    9 ar    
   16    8   20 1     
   17    9   10 ar    
   18    9   21 1     
   19   10   11 ar    
   20   10   22 1     
   21   11   12 1     
   22   11   13 ar    
   23   13   23 1     
@<TRIPOS>SUBSTRUCTURE
      1 ****           1
@<TRIPOS>COMMENT
> <Gold.Version>
2022.2.0

> <Gold.Id.Protein>
3pbl|protein|mol2

> <Gold.Protein.RotatedTorsions>
[ 1303 1298 1297 1294 ] final  -51.33 input  179.99 | X-H torsion
[ 2461 2456 2455 2452 ] final -104.29 input   30.03 | X-H torsion
[ 2515 2510 2509 2506 ] final   26.57 input  -89.99 | X-H torsion
[ 3721 3712 3711 3710 ] final   74.43 input -179.91 | X-H torsion
[ 3841 3832 3831 3830 ] final  -49.48 input -179.91 | X-H torsion
[ 3767 3762 3761 3758 ] final -156.63 input  -89.99 | X-H torsion
[ 2472 2467 2466 2463 ] final    8.69 input  -89.97 | X-H torsion

> <Gold.Protein.ActiveResidues>
 VAL82   VAL86   LEU89   PHE106  VAL107  ASP110  VAL111  MET112  CYS114  THR115 
 CYS181  SER182  ILE183  PHE188  VAL189  ILE190  SER192  SER193  SER196  TRP342 
 PHE345  PHE346  HIS349  VAL350  TYR365  THR369  GLY372  TYR373 

> <Gold.Protein.RotatedAtoms>
    3.4320   -9.1022    3.7803 H   0  0  0  0  0  0  0  0  0  0  0  0  # atno 1303 bound_to 1298
    0.4318   -9.0501    7.8788 H   0  0  0  0  0  0  0  0  0  0  0  0  # atno 2461 bound_to 2456
   -3.8866   -4.8468    7.9651 H   0  0  0  0  0  0  0  0  0  0  0  0  # atno 2472 bound_to 2467
    2.3556   -7.4354    4.9482 H   0  0  0  0  0  0  0  0  0  0  0  0  # atno 2515 bound_to 2510
   -2.6762  -17.7839   13.2264 H   0  0  0  0  0  0  0  0  0  0  0  0  # atno 3721 bound_to 3712
   -4.3497  -22.2606   11.6490 H   0  0  0  0  0  0  0  0  0  0  0  0  # atno 3767 bound_to 3762
    1.5742  -19.9137    9.1460 H   0  0  0  0  0  0  0  0  0  0  0  0  # atno 3841 bound_to 3832
    4.8027   -8.7680    4.6025 LP  0  0  0  0  0  0  0  0  0  0  0  0  # atno 4297 bound_to 1298
    4.1277  -10.2512    4.7090 LP  0  0  0  0  0  0  0  0  0  0  0  0  # atno 4298 bound_to 1298
    2.0155   -8.8295    8.2112 LP  0  0  0  0  0  0  0  0  0  0  0  0  # atno 4299 bound_to 2456
    1.2902   -7.9288    7.0582 LP  0  0  0  0  0  0  0  0  0  0  0  0  # atno 4300 bound_to 2456
    2.8138   -8.9735    4.6479 LP  0  0  0  0  0  0  0  0  0  0  0  0  # atno 4301 bound_to 2510
    2.1274   -8.5906    6.0793 LP  0  0  0  0  0  0  0  0  0  0  0  0  # atno 4302 bound_to 2510
   -2.8704  -17.6255   14.8123 LP  0  0  0  0  0  0  0  0  0  0  0  0  # atno 4306 bound_to 3712
   -3.5675  -16.5689   13.7807 LP  0  0  0  0  0  0  0  0  0  0  0  0  # atno 4307 bound_to 3712
    2.8398  -20.0441    8.1675 LP  0  0  0  0  0  0  0  0  0  0  0  0  # atno 4314 bound_to 3832
    2.5711  -21.1579    9.3311 LP  0  0  0  0  0  0  0  0  0  0  0  0  # atno 4315 bound_to 3832
   -4.2676  -23.3356   10.4224 LP  0  0  0  0  0  0  0  0  0  0  0  0  # atno 4318 bound_to 3762
   -5.5099  -22.2786   10.4999 LP  0  0  0  0  0  0  0  0  0  0  0  0  # atno 4319 bound_to 3762
   -4.3609   -5.4218    9.4180 LP  0  0  0  0  0  0  0  0  0  0  0  0  # atno 4320 bound_to 2467
   -5.4692   -5.1249    8.2560 LP  0  0  0  0  0  0  0  0  0  0  0  0  # atno 4321 bound_to 2467

> <Gold.Score>
     Score     S(PLP)   S(hbond)     S(cho)   S(metal)  DE(clash)   DE(tors)     intcor
     42.55     -40.29       0.93       0.00       0.00       0.00       0.82       1.11

> <Gold.PLP.Fitness>
42.5537

> <Gold.PLP.PLP>
-40.2868

> <Gold.PLP.part.hbond>
-1.9007

> <Gold.PLP.part.metal>
0.0000

> <Gold.PLP.part.buried>
-1.3240

> <Gold.PLP.part.nonpolar>
-37.6516

> <Gold.PLP.part.repulsive>
0.1859

> <Gold.PLP.ligand.clash>
0.0000

> <Gold.PLP.ligand.torsion>
0.8158

> <Gold.PLP.Chemscore.Hbond>
0.9280

> <Gold.PLP.Chemscore.CHOScore>
0.0000

> <Gold.PLP.Chemscore.Metal>
0.0000

> <Gold.Chemscore.Hbonds>
donor molecule, donor type, donor heavy atom, donor atom, acceptor molecule, acceptor atom, score
      P1  H  2456  2461       L1     6  0.93

> <Gold.PLP.Chemscore.Internal.Correction>
1.1144

