#       Name:                EN300-64755_i001
#       Creating user name   fsindt
#       Creation time:       Wed Mar  1 23:48:47 2023


#       File generated by GOLD software.
#

@<TRIPOS>MOLECULE
EN300-64755_i001|acide_1|mol2|10628|dock17
    23    23     1
SMALL
USER_CHARGES


@<TRIPOS>ATOM
      1 C1           0.9812 -15.6081  12.5644 C.3            1 <1>                0.0000
      2 C2           0.8783 -16.9093  13.3626 C.3            1 <1>                0.0000
      3 C3           2.2527 -17.2697  13.9299 C.3            1 <1>                0.0000
      4 C4          -0.1005 -16.7285  14.4941 C.2            1 <1>                0.0000
      5 O5          -0.4500 -15.6083  14.8248 O.co2          1 <1>                0.0000
      6 O6          -0.5429 -17.7027  15.0788 O.co2          1 <1>               -1.0000
      7 C7           0.4019 -18.0169  12.4584 C.ar           1 <1>                0.0000
      8 C8           0.4985 -19.3333  12.8685 C.ar           1 <1>                0.0000
      9 C9           0.0615 -20.3499  12.0395 C.ar           1 <1>                0.0000
     10 C10         -0.4719 -20.0501  10.8003 C.ar           1 <1>                0.0000
     11 C11         -0.5692 -18.7326  10.3897 C.ar           1 <1>                0.0000
     12 Br12        -1.2991 -18.3218   8.6943 Br             1 <1>                0.0000
     13 C13         -0.1369 -17.7158  11.2215 C.ar           1 <1>                0.0000
     14 H14          1.6891 -15.7389  11.7460 H              1 <1>                0.0000
     15 H15          0.0019 -15.3514  12.1602 H              1 <1>                0.0000
     16 H16          1.3257 -14.8071  13.2183 H              1 <1>                0.0000
     17 H17          2.5973 -16.4686  14.5837 H              1 <1>                0.0000
     18 H18          2.1795 -18.1967  14.4984 H              1 <1>                0.0000
     19 H19          2.9607 -17.4005  13.1115 H              1 <1>                0.0000
     20 H20          0.9156 -19.5680  13.8367 H              1 <1>                0.0000
     21 H21          0.1375 -21.3784  12.3601 H              1 <1>                0.0000
     22 H22         -0.8126 -20.8444  10.1525 H              1 <1>                0.0000
     23 H23         -0.2125 -16.6871  10.9013 H              1 <1>                0.0000
@<TRIPOS>BOND
    1    1    2 1     
    2    1   14 1     
    3    1   15 1     
    4    1   16 1     
    5    2    3 1     
    6    2    4 1     
    7    2    7 1     
    8    3   17 1     
    9    3   18 1     
   10    3   19 1     
   11    4    5 ar    
   12    4    6 ar    
   13    7    8 ar    
   14    7   13 ar    
   15    8    9 ar    
   16    8   20 1     
   17    9   10 ar    
   18    9   21 1     
   19   10   11 ar    
   20   10   22 1     
   21   11   12 1     
   22   11   13 ar    
   23   13   23 1     
@<TRIPOS>SUBSTRUCTURE
      1 ****           1
@<TRIPOS>COMMENT
> <Gold.Version>
2022.2.0

> <Gold.Id.Protein>
3pbl|protein|mol2

> <Gold.Protein.RotatedTorsions>
[ 1303 1298 1297 1294 ] final   89.70 input  179.99 | X-H torsion
[ 2461 2456 2455 2452 ] final  -54.51 input   30.03 | X-H torsion
[ 2515 2510 2509 2506 ] final -174.39 input  -89.99 | X-H torsion
[ 3721 3712 3711 3710 ] final  -13.52 input -179.91 | X-H torsion
[ 3841 3832 3831 3830 ] final   -9.96 input -179.91 | X-H torsion
[ 3767 3762 3761 3758 ] final  140.24 input  -89.99 | X-H torsion
[ 2472 2467 2466 2463 ] final  110.82 input  -89.97 | X-H torsion

> <Gold.Protein.ActiveResidues>
 VAL82   VAL86   LEU89   PHE106  VAL107  ASP110  VAL111  MET112  CYS114  THR115 
 CYS181  SER182  ILE183  PHE188  VAL189  ILE190  SER192  SER193  SER196  TRP342 
 PHE345  PHE346  HIS349  VAL350  TYR365  THR369  GLY372  TYR373 

> <Gold.Protein.RotatedAtoms>
    4.4109  -10.1231    4.8567 H   0  0  0  0  0  0  0  0  0  0  0  0  # atno 1303 bound_to 1298
    0.4004   -8.4943    7.3126 H   0  0  0  0  0  0  0  0  0  0  0  0  # atno 2461 bound_to 2456
   -5.3418   -5.0239    8.0123 H   0  0  0  0  0  0  0  0  0  0  0  0  # atno 2472 bound_to 2467
    2.3623   -9.0922    5.7792 H   0  0  0  0  0  0  0  0  0  0  0  0  # atno 2515 bound_to 2510
   -2.5267  -17.8601   14.4175 H   0  0  0  0  0  0  0  0  0  0  0  0  # atno 3721 bound_to 3712
   -3.9066  -23.0046   11.1749 H   0  0  0  0  0  0  0  0  0  0  0  0  # atno 3767 bound_to 3762
    1.6603  -20.3705    9.5017 H   0  0  0  0  0  0  0  0  0  0  0  0  # atno 3841 bound_to 3832
    3.3382   -9.4277    3.8408 LP  0  0  0  0  0  0  0  0  0  0  0  0  # atno 4297 bound_to 1298
    4.6130   -8.5702    4.3939 LP  0  0  0  0  0  0  0  0  0  0  0  0  # atno 4298 bound_to 1298
    1.3644   -9.2434    8.3974 LP  0  0  0  0  0  0  0  0  0  0  0  0  # atno 4299 bound_to 2456
    1.9727   -8.0704    7.4379 LP  0  0  0  0  0  0  0  0  0  0  0  0  # atno 4300 bound_to 2456
    2.1230   -7.4964    5.5304 LP  0  0  0  0  0  0  0  0  0  0  0  0  # atno 4301 bound_to 2510
    2.8115   -8.4102    4.3654 LP  0  0  0  0  0  0  0  0  0  0  0  0  # atno 4302 bound_to 2510
   -3.5077  -16.5994   14.2567 LP  0  0  0  0  0  0  0  0  0  0  0  0  # atno 4306 bound_to 3712
   -3.1029  -17.5071   12.9611 LP  0  0  0  0  0  0  0  0  0  0  0  0  # atno 4307 bound_to 3712
    2.2953  -19.6947    8.1917 LP  0  0  0  0  0  0  0  0  0  0  0  0  # atno 4314 bound_to 3832
    3.0161  -20.9796    8.8960 LP  0  0  0  0  0  0  0  0  0  0  0  0  # atno 4315 bound_to 3832
   -5.1069  -22.9553   10.0687 LP  0  0  0  0  0  0  0  0  0  0  0  0  # atno 4318 bound_to 3762
   -5.1136  -21.9152   11.3276 LP  0  0  0  0  0  0  0  0  0  0  0  0  # atno 4319 bound_to 3762
   -3.7235   -4.9124    8.1993 LP  0  0  0  0  0  0  0  0  0  0  0  0  # atno 4320 bound_to 2467
   -4.6517   -5.4572    9.4274 LP  0  0  0  0  0  0  0  0  0  0  0  0  # atno 4321 bound_to 2467

> <Gold.Score>
     Score     S(PLP)   S(hbond)     S(cho)   S(metal)  DE(clash)   DE(tors)     intcor
     38.48     -33.97       2.00       0.00       0.00       0.44       1.08       1.11

> <Gold.PLP.Fitness>
38.4824

> <Gold.PLP.PLP>
-33.9709

> <Gold.PLP.part.hbond>
-2.0000

> <Gold.PLP.part.metal>
0.0000

> <Gold.PLP.part.buried>
-2.1379

> <Gold.PLP.part.nonpolar>
-30.4479

> <Gold.PLP.part.repulsive>
0.1459

> <Gold.PLP.ligand.clash>
0.4421

> <Gold.PLP.ligand.torsion>
1.0804

> <Gold.PLP.Chemscore.Hbond>
2.0000

> <Gold.PLP.Chemscore.CHOScore>
0.0000

> <Gold.PLP.Chemscore.Metal>
0.0000

> <Gold.Chemscore.Hbonds>
donor molecule, donor type, donor heavy atom, donor atom, acceptor molecule, acceptor atom, score
      P1  H  2305  2313       L1     5  1.00
      P1  H  3712  3721       L1     6  1.00

> <Gold.PLP.Chemscore.Internal.Correction>
1.1144

