#       Name:                EN300-64755_i001
#       Creating user name   fsindt
#       Creation time:       Wed Mar  1 23:48:48 2023


#       File generated by GOLD software.
#

@<TRIPOS>MOLECULE
EN300-64755_i001|acide_1|mol2|10628|dock20
    23    23     1
SMALL
USER_CHARGES


@<TRIPOS>ATOM
      1 C1           1.9218 -16.2652  13.1458 C.3            1 <1>                0.0000
      2 C2           1.0167 -17.3867  13.6596 C.3            1 <1>                0.0000
      3 C3           1.8503 -18.3871  14.4629 C.3            1 <1>                0.0000
      4 C4          -0.0553 -16.8023  14.5430 C.2            1 <1>                0.0000
      5 O5          -0.8763 -17.5333  15.0702 O.co2          1 <1>                0.0000
      6 O6          -0.1014 -15.5984  14.7304 O.co2          1 <1>               -1.0000
      7 C7           0.3762 -18.0905  12.4910 C.ar           1 <1>                0.0000
      8 C8          -0.1123 -17.3572  11.4260 C.ar           1 <1>                0.0000
      9 C9          -0.6999 -18.0023  10.3537 C.ar           1 <1>                0.0000
     10 C10         -0.7992 -19.3808  10.3462 C.ar           1 <1>                0.0000
     11 C11         -0.3100 -20.1151  11.4117 C.ar           1 <1>                0.0000
     12 Br12        -0.4455 -22.0012  11.4020 Br             1 <1>                0.0000
     13 C13          0.2825 -19.4696  12.4818 C.ar           1 <1>                0.0000
     14 H14          2.6971 -16.6880  12.5068 H              1 <1>                0.0000
     15 H15          1.3279 -15.5525  12.5735 H              1 <1>                0.0000
     16 H16          2.3850 -15.7562  13.9909 H              1 <1>                0.0000
     17 H17          2.3136 -17.8781  15.3080 H              1 <1>                0.0000
     18 H18          1.2056 -19.1861  14.8289 H              1 <1>                0.0000
     19 H19          2.6256 -18.8099  13.8240 H              1 <1>                0.0000
     20 H20         -0.0351 -16.2800  11.4317 H              1 <1>                0.0000
     21 H21         -1.0818 -17.4290   9.5219 H              1 <1>                0.0000
     22 H22         -1.2590 -19.8846   9.5087 H              1 <1>                0.0000
     23 H23          0.6645 -20.0425  13.3138 H              1 <1>                0.0000
@<TRIPOS>BOND
    1    1    2 1     
    2    1   14 1     
    3    1   15 1     
    4    1   16 1     
    5    2    3 1     
    6    2    4 1     
    7    2    7 1     
    8    3   17 1     
    9    3   18 1     
   10    3   19 1     
   11    4    5 ar    
   12    4    6 ar    
   13    7    8 ar    
   14    7   13 ar    
   15    8    9 ar    
   16    8   20 1     
   17    9   10 ar    
   18    9   21 1     
   19   10   11 ar    
   20   10   22 1     
   21   11   12 1     
   22   11   13 ar    
   23   13   23 1     
@<TRIPOS>SUBSTRUCTURE
      1 ****           1
@<TRIPOS>COMMENT
> <Gold.Version>
2022.2.0

> <Gold.Id.Protein>
3pbl|protein|mol2

> <Gold.Protein.RotatedTorsions>
[ 1303 1298 1297 1294 ] final -169.85 input  179.99 | X-H torsion
[ 2461 2456 2455 2452 ] final  -66.32 input   30.03 | X-H torsion
[ 2515 2510 2509 2506 ] final  -29.49 input  -89.99 | X-H torsion
[ 3721 3712 3711 3710 ] final  -47.57 input -179.91 | X-H torsion
[ 3841 3832 3831 3830 ] final -108.73 input -179.91 | X-H torsion
[ 3767 3762 3761 3758 ] final -131.14 input  -89.99 | X-H torsion
[ 2472 2467 2466 2463 ] final   68.66 input  -89.97 | X-H torsion

> <Gold.Protein.ActiveResidues>
 VAL82   VAL86   LEU89   PHE106  VAL107  ASP110  VAL111  MET112  CYS114  THR115 
 CYS181  SER182  ILE183  PHE188  VAL189  ILE190  SER192  SER193  SER196  TRP342 
 PHE345  PHE346  HIS349  VAL350  TYR365  THR369  GLY372  TYR373 

> <Gold.Protein.RotatedAtoms>
    4.7916   -8.7510    4.5888 H   0  0  0  0  0  0  0  0  0  0  0  0  # atno 1303 bound_to 1298
    0.3464   -8.6353    7.4346 H   0  0  0  0  0  0  0  0  0  0  0  0  # atno 2461 bound_to 2456
   -4.7830   -4.8407    7.6745 H   0  0  0  0  0  0  0  0  0  0  0  0  # atno 2472 bound_to 2467
    2.7182   -8.0152    4.3852 H   0  0  0  0  0  0  0  0  0  0  0  0  # atno 2515 bound_to 2510
   -2.7117  -17.4914   14.7127 H   0  0  0  0  0  0  0  0  0  0  0  0  # atno 3721 bound_to 3712
   -4.6933  -22.0335   11.5912 H   0  0  0  0  0  0  0  0  0  0  0  0  # atno 3767 bound_to 3762
    2.0745  -19.5796    8.5372 H   0  0  0  0  0  0  0  0  0  0  0  0  # atno 3841 bound_to 3832
    4.1481  -10.2459    4.7211 LP  0  0  0  0  0  0  0  0  0  0  0  0  # atno 4297 bound_to 1298
    3.4223   -9.1247    3.7816 LP  0  0  0  0  0  0  0  0  0  0  0  0  # atno 4298 bound_to 1298
    1.5478   -9.1797    8.3978 LP  0  0  0  0  0  0  0  0  0  0  0  0  # atno 4299 bound_to 2456
    1.8433   -7.9931    7.3156 LP  0  0  0  0  0  0  0  0  0  0  0  0  # atno 4300 bound_to 2456
    2.5360   -9.2441    5.4447 LP  0  0  0  0  0  0  0  0  0  0  0  0  # atno 4301 bound_to 2510
    2.0424   -7.7400    5.8458 LP  0  0  0  0  0  0  0  0  0  0  0  0  # atno 4302 bound_to 2510
   -3.5656  -16.5850   13.6992 LP  0  0  0  0  0  0  0  0  0  0  0  0  # atno 4306 bound_to 3712
   -2.8314  -17.9472   13.1778 LP  0  0  0  0  0  0  0  0  0  0  0  0  # atno 4307 bound_to 3712
    3.1118  -20.7968    8.6730 LP  0  0  0  0  0  0  0  0  0  0  0  0  # atno 4314 bound_to 3832
    1.7212  -20.7911    9.5289 LP  0  0  0  0  0  0  0  0  0  0  0  0  # atno 4315 bound_to 3832
   -4.0225  -23.2622   10.7502 LP  0  0  0  0  0  0  0  0  0  0  0  0  # atno 4318 bound_to 3762
   -5.4116  -22.5792   10.2299 LP  0  0  0  0  0  0  0  0  0  0  0  0  # atno 4319 bound_to 3762
   -3.6756   -5.1371    8.8374 LP  0  0  0  0  0  0  0  0  0  0  0  0  # atno 4320 bound_to 2467
   -5.2584   -5.4157    9.1271 LP  0  0  0  0  0  0  0  0  0  0  0  0  # atno 4321 bound_to 2467

> <Gold.Score>
     Score     S(PLP)   S(hbond)     S(cho)   S(metal)  DE(clash)   DE(tors)     intcor
     38.16     -33.14       1.80       0.00       0.00       0.05       0.72       1.11

> <Gold.PLP.Fitness>
38.1611

> <Gold.PLP.PLP>
-33.1370

> <Gold.PLP.part.hbond>
-2.0000

> <Gold.PLP.part.metal>
0.0000

> <Gold.PLP.part.buried>
-4.4814

> <Gold.PLP.part.nonpolar>
-27.1510

> <Gold.PLP.part.repulsive>
0.1313

> <Gold.PLP.ligand.clash>
0.0520

> <Gold.PLP.ligand.torsion>
0.7191

> <Gold.PLP.Chemscore.Hbond>
1.8000

> <Gold.PLP.Chemscore.CHOScore>
0.0000

> <Gold.PLP.Chemscore.Metal>
0.0000

> <Gold.Chemscore.Hbonds>
donor molecule, donor type, donor heavy atom, donor atom, acceptor molecule, acceptor atom, score
      P1  H  2305  2313       L1     6  1.00
      P1  H  3712  3721       L1     5  0.80

> <Gold.PLP.Chemscore.Internal.Correction>
1.1144

