#       Name:                EN300-64755_i001
#       Creating user name   fsindt
#       Creation time:       Wed Mar  1 23:48:46 2023


#       File generated by GOLD software.
#

@<TRIPOS>MOLECULE
EN300-64755_i001|acide_1|mol2|10628|dock11
    23    23     1
SMALL
USER_CHARGES


@<TRIPOS>ATOM
      1 C1          -0.0060 -14.2695  10.0445 C.3            1 <1>                0.0000
      2 C2           0.2535 -12.9924   9.2428 C.3            1 <1>                0.0000
      3 C3           1.7054 -12.5523   9.4405 C.3            1 <1>                0.0000
      4 C4           0.0037 -13.2578   7.7805 C.2            1 <1>                0.0000
      5 O5          -0.4359 -14.3374   7.4232 O.co2          1 <1>                0.0000
      6 O6           0.2413 -12.3927   6.9548 O.co2          1 <1>               -1.0000
      7 C7          -0.6713 -11.9027   9.7208 C.ar           1 <1>                0.0000
      8 C8          -0.1606 -10.8095  10.3950 C.ar           1 <1>                0.0000
      9 C9          -1.0085  -9.8094  10.8336 C.ar           1 <1>                0.0000
     10 C10         -2.3671  -9.9024  10.5982 C.ar           1 <1>                0.0000
     11 C11         -2.8786 -10.9962   9.9229 C.ar           1 <1>                0.0000
     12 Br12        -4.7375 -11.1240   9.6004 Br             1 <1>                0.0000
     13 C13         -2.0294 -11.9938   9.4797 C.ar           1 <1>                0.0000
     14 H14          0.1747 -14.0776  11.1021 H              1 <1>                0.0000
     15 H15         -1.0404 -14.5831   9.9036 H              1 <1>                0.0000
     16 H16          0.6628 -15.0576   9.6989 H              1 <1>                0.0000
     17 H17          2.3742 -13.3405   9.0949 H              1 <1>                0.0000
     18 H18          1.8902 -11.6425   8.8695 H              1 <1>                0.0000
     19 H19          1.8861 -12.3604  10.4982 H              1 <1>                0.0000
     20 H20          0.9010 -10.7366  10.5795 H              1 <1>                0.0000
     21 H21         -0.6091  -8.9555  11.3607 H              1 <1>                0.0000
     22 H22         -3.0295  -9.1214  10.9415 H              1 <1>                0.0000
     23 H23         -2.4283 -12.8479   8.9527 H              1 <1>                0.0000
@<TRIPOS>BOND
    1    1    2 1     
    2    1   14 1     
    3    1   15 1     
    4    1   16 1     
    5    2    3 1     
    6    2    4 1     
    7    2    7 1     
    8    3   17 1     
    9    3   18 1     
   10    3   19 1     
   11    4    5 ar    
   12    4    6 ar    
   13    7    8 ar    
   14    7   13 ar    
   15    8    9 ar    
   16    8   20 1     
   17    9   10 ar    
   18    9   21 1     
   19   10   11 ar    
   20   10   22 1     
   21   11   12 1     
   22   11   13 ar    
   23   13   23 1     
@<TRIPOS>SUBSTRUCTURE
      1 ****           1
@<TRIPOS>COMMENT
> <Gold.Version>
2022.2.0

> <Gold.Id.Protein>
3pbl|protein|mol2

> <Gold.Protein.RotatedTorsions>
[ 1303 1298 1297 1294 ] final  -58.60 input  179.99 | X-H torsion
[ 2461 2456 2455 2452 ] final  -93.21 input   30.03 | X-H torsion
[ 2515 2510 2509 2506 ] final   35.99 input  -89.99 | X-H torsion
[ 3721 3712 3711 3710 ] final   82.37 input -179.91 | X-H torsion
[ 3841 3832 3831 3830 ] final  118.74 input -179.91 | X-H torsion
[ 3767 3762 3761 3758 ] final  -73.95 input  -89.99 | X-H torsion
[ 2472 2467 2466 2463 ] final  156.57 input  -89.97 | X-H torsion

> <Gold.Protein.ActiveResidues>
 VAL82   VAL86   LEU89   PHE106  VAL107  ASP110  VAL111  MET112  CYS114  THR115 
 CYS181  SER182  ILE183  PHE188  VAL189  ILE190  SER192  SER193  SER196  TRP342 
 PHE345  PHE346  HIS349  VAL350  TYR365  THR369  GLY372  TYR373 

> <Gold.Protein.RotatedAtoms>
    3.4868   -8.9962    3.7773 H   0  0  0  0  0  0  0  0  0  0  0  0  # atno 1303 bound_to 1298
    0.3665   -8.9418    7.7478 H   0  0  0  0  0  0  0  0  0  0  0  0  # atno 2461 bound_to 2456
   -5.4931   -5.2818    8.6817 H   0  0  0  0  0  0  0  0  0  0  0  0  # atno 2472 bound_to 2467
    2.2918   -7.4114    5.0872 H   0  0  0  0  0  0  0  0  0  0  0  0  # atno 2515 bound_to 2510
   -2.7295  -17.7017   13.1572 H   0  0  0  0  0  0  0  0  0  0  0  0  # atno 3721 bound_to 3712
   -5.3746  -21.9729   11.0022 H   0  0  0  0  0  0  0  0  0  0  0  0  # atno 3767 bound_to 3762
    3.0749  -20.7362    8.9533 H   0  0  0  0  0  0  0  0  0  0  0  0  # atno 3841 bound_to 3832
    4.8480   -8.8568    4.6684 LP  0  0  0  0  0  0  0  0  0  0  0  0  # atno 4297 bound_to 1298
    4.0276  -10.2685    4.6462 LP  0  0  0  0  0  0  0  0  0  0  0  0  # atno 4298 bound_to 1298
    1.9060   -8.9496    8.2930 LP  0  0  0  0  0  0  0  0  0  0  0  0  # atno 4299 bound_to 2456
    1.4650   -7.9169    7.1074 LP  0  0  0  0  0  0  0  0  0  0  0  0  # atno 4300 bound_to 2456
    2.8302   -8.8557    4.5488 LP  0  0  0  0  0  0  0  0  0  0  0  0  # atno 4301 bound_to 2510
    2.1748   -8.7325    6.0394 LP  0  0  0  0  0  0  0  0  0  0  0  0  # atno 4302 bound_to 2510
   -2.8133  -17.7332   14.7603 LP  0  0  0  0  0  0  0  0  0  0  0  0  # atno 4306 bound_to 3712
   -3.5631  -16.5561   13.9125 LP  0  0  0  0  0  0  0  0  0  0  0  0  # atno 4307 bound_to 3712
    1.5582  -20.6027    9.4612 LP  0  0  0  0  0  0  0  0  0  0  0  0  # atno 4314 bound_to 3832
    2.1191  -19.6491    8.2601 LP  0  0  0  0  0  0  0  0  0  0  0  0  # atno 4315 bound_to 3832
   -3.9889  -22.7057   11.4599 LP  0  0  0  0  0  0  0  0  0  0  0  0  # atno 4318 bound_to 3762
   -4.7642  -23.1962   10.1090 LP  0  0  0  0  0  0  0  0  0  0  0  0  # atno 4319 bound_to 3762
   -4.2656   -4.7990    7.7191 LP  0  0  0  0  0  0  0  0  0  0  0  0  # atno 4320 bound_to 2467
   -3.9584   -5.3128    9.2384 LP  0  0  0  0  0  0  0  0  0  0  0  0  # atno 4321 bound_to 2467

> <Gold.Score>
     Score     S(PLP)   S(hbond)     S(cho)   S(metal)  DE(clash)   DE(tors)     intcor
     40.57     -40.89       0.00       0.00       0.00       0.87       0.28       1.11

> <Gold.PLP.Fitness>
40.5685

> <Gold.PLP.PLP>
-40.8923

> <Gold.PLP.part.hbond>
0.0000

> <Gold.PLP.part.metal>
0.0000

> <Gold.PLP.part.buried>
-2.4365

> <Gold.PLP.part.nonpolar>
-39.2835

> <Gold.PLP.part.repulsive>
0.0013

> <Gold.PLP.ligand.clash>
0.8725

> <Gold.PLP.ligand.torsion>
0.2828

> <Gold.PLP.Chemscore.Hbond>
0.0000

> <Gold.PLP.Chemscore.CHOScore>
0.0000

> <Gold.PLP.Chemscore.Metal>
0.0000

> <Gold.PLP.Chemscore.Internal.Correction>
1.1144

