#       Name:                EN300-64755_i001
#       Creating user name   fsindt
#       Creation time:       Wed Mar  1 23:48:48 2023


#       File generated by GOLD software.
#

@<TRIPOS>MOLECULE
EN300-64755_i001|acide_1|mol2|10628|dock18
    23    23     1
SMALL
USER_CHARGES


@<TRIPOS>ATOM
      1 C1          -0.1228 -15.6396  13.9604 C.3            1 <1>                0.0000
      2 C2           0.3774 -16.0284  12.5677 C.3            1 <1>                0.0000
      3 C3           1.8927 -16.2362  12.6096 C.3            1 <1>                0.0000
      4 C4          -0.2929 -17.3057  12.1317 C.2            1 <1>                0.0000
      5 O5          -0.1266 -17.7257  10.9992 O.co2          1 <1>                0.0000
      6 O6          -1.0016 -17.9191  12.9115 O.co2          1 <1>               -1.0000
      7 C7           0.0479 -14.9293  11.5907 C.ar           1 <1>                0.0000
      8 C8          -0.7015 -13.8425  12.0002 C.ar           1 <1>                0.0000
      9 C9          -1.0040 -12.8338  11.1043 C.ar           1 <1>                0.0000
     10 C10         -0.5572 -12.9119   9.7988 C.ar           1 <1>                0.0000
     11 C11          0.1933 -13.9993   9.3886 C.ar           1 <1>                0.0000
     12 Br12         0.8049 -14.1067   7.6025 Br             1 <1>                0.0000
     13 C13          0.5001 -15.0055  10.2866 C.ar           1 <1>                0.0000
     14 H14          0.3621 -14.7156  14.2757 H              1 <1>                0.0000
     15 H15         -1.2023 -15.4915  13.9305 H              1 <1>                0.0000
     16 H16          0.1155 -16.4344  14.6670 H              1 <1>                0.0000
     17 H17          2.1309 -17.0310  13.3164 H              1 <1>                0.0000
     18 H18          2.2490 -16.5131  11.6175 H              1 <1>                0.0000
     19 H19          2.3775 -15.3122  12.9250 H              1 <1>                0.0000
     20 H20         -1.0511 -13.7813  13.0202 H              1 <1>                0.0000
     21 H21         -1.5899 -11.9849  11.4245 H              1 <1>                0.0000
     22 H22         -0.7943 -12.1243   9.0988 H              1 <1>                0.0000
     23 H23          1.0859 -15.8545   9.9668 H              1 <1>                0.0000
@<TRIPOS>BOND
    1    1    2 1     
    2    1   14 1     
    3    1   15 1     
    4    1   16 1     
    5    2    3 1     
    6    2    4 1     
    7    2    7 1     
    8    3   17 1     
    9    3   18 1     
   10    3   19 1     
   11    4    5 ar    
   12    4    6 ar    
   13    7    8 ar    
   14    7   13 ar    
   15    8    9 ar    
   16    8   20 1     
   17    9   10 ar    
   18    9   21 1     
   19   10   11 ar    
   20   10   22 1     
   21   11   12 1     
   22   11   13 ar    
   23   13   23 1     
@<TRIPOS>SUBSTRUCTURE
      1 ****           1
@<TRIPOS>COMMENT
> <Gold.Version>
2022.2.0

> <Gold.Id.Protein>
3pbl|protein|mol2

> <Gold.Protein.RotatedTorsions>
[ 1303 1298 1297 1294 ] final -124.59 input  179.99 | X-H torsion
[ 2461 2456 2455 2452 ] final  -99.55 input   30.03 | X-H torsion
[ 2515 2510 2509 2506 ] final    5.53 input  -89.99 | X-H torsion
[ 3721 3712 3711 3710 ] final   39.56 input -179.91 | X-H torsion
[ 3841 3832 3831 3830 ] final   76.37 input -179.91 | X-H torsion
[ 3767 3762 3761 3758 ] final  177.98 input  -89.99 | X-H torsion
[ 2472 2467 2466 2463 ] final  -83.93 input  -89.97 | X-H torsion

> <Gold.Protein.ActiveResidues>
 VAL82   VAL86   LEU89   PHE106  VAL107  ASP110  VAL111  MET112  CYS114  THR115 
 CYS181  SER182  ILE183  PHE188  VAL189  ILE190  SER192  SER193  SER196  TRP342 
 PHE345  PHE346  HIS349  VAL350  TYR365  THR369  GLY372  TYR373 

> <Gold.Protein.RotatedAtoms>
    4.2953   -8.4757    4.1371 H   0  0  0  0  0  0  0  0  0  0  0  0  # atno 1303 bound_to 1298
    0.3999   -9.0055    7.8231 H   0  0  0  0  0  0  0  0  0  0  0  0  # atno 2461 bound_to 2456
   -3.9644   -5.3159    9.2430 H   0  0  0  0  0  0  0  0  0  0  0  0  # atno 2472 bound_to 2467
    2.5029   -7.5746    4.6702 H   0  0  0  0  0  0  0  0  0  0  0  0  # atno 2515 bound_to 2510
   -2.5058  -18.0142   13.6592 H   0  0  0  0  0  0  0  0  0  0  0  0  # atno 3721 bound_to 3712
   -4.0767  -22.5576   11.5533 H   0  0  0  0  0  0  0  0  0  0  0  0  # atno 3767 bound_to 3762
    2.6845  -20.9547    9.3906 H   0  0  0  0  0  0  0  0  0  0  0  0  # atno 3841 bound_to 3832
    4.7017   -9.8345    4.9462 LP  0  0  0  0  0  0  0  0  0  0  0  0  # atno 4297 bound_to 1298
    3.3651   -9.8115    4.0084 LP  0  0  0  0  0  0  0  0  0  0  0  0  # atno 4298 bound_to 1298
    1.9719   -8.8822    8.2487 LP  0  0  0  0  0  0  0  0  0  0  0  0  # atno 4299 bound_to 2456
    1.3657   -7.9206    7.0764 LP  0  0  0  0  0  0  0  0  0  0  0  0  # atno 4300 bound_to 2456
    2.7411   -9.1703    4.9208 LP  0  0  0  0  0  0  0  0  0  0  0  0  # atno 4301 bound_to 2510
    2.0527   -8.2546    6.0846 LP  0  0  0  0  0  0  0  0  0  0  0  0  # atno 4302 bound_to 2510
   -3.1543  -17.1273   14.8299 LP  0  0  0  0  0  0  0  0  0  0  0  0  # atno 4306 bound_to 3712
   -3.4804  -16.8013   13.2634 LP  0  0  0  0  0  0  0  0  0  0  0  0  # atno 4307 bound_to 3712
    1.3945  -20.0546    9.0719 LP  0  0  0  0  0  0  0  0  0  0  0  0  # atno 4314 bound_to 3832
    2.7338  -19.9448    8.1442 LP  0  0  0  0  0  0  0  0  0  0  0  0  # atno 4315 bound_to 3832
   -4.5974  -23.2713   10.1798 LP  0  0  0  0  0  0  0  0  0  0  0  0  # atno 4318 bound_to 3762
   -5.4529  -22.0461   10.8382 LP  0  0  0  0  0  0  0  0  0  0  0  0  # atno 4319 bound_to 3762
   -5.4947   -5.2785    8.6743 LP  0  0  0  0  0  0  0  0  0  0  0  0  # atno 4320 bound_to 2467
   -4.2577   -4.7992    7.7220 LP  0  0  0  0  0  0  0  0  0  0  0  0  # atno 4321 bound_to 2467

> <Gold.Score>
     Score     S(PLP)   S(hbond)     S(cho)   S(metal)  DE(clash)   DE(tors)     intcor
     41.15     -38.66       0.94       0.00       0.00       1.03       0.22       1.11

> <Gold.PLP.Fitness>
41.1470

> <Gold.PLP.PLP>
-38.6597

> <Gold.PLP.part.hbond>
-0.9287

> <Gold.PLP.part.metal>
0.0000

> <Gold.PLP.part.buried>
-3.8382

> <Gold.PLP.part.nonpolar>
-35.4231

> <Gold.PLP.part.repulsive>
0.2785

> <Gold.PLP.ligand.clash>
1.0281

> <Gold.PLP.ligand.torsion>
0.2155

> <Gold.PLP.Chemscore.Hbond>
0.9440

> <Gold.PLP.Chemscore.CHOScore>
0.0000

> <Gold.PLP.Chemscore.Metal>
0.0000

> <Gold.Chemscore.Hbonds>
donor molecule, donor type, donor heavy atom, donor atom, acceptor molecule, acceptor atom, score
      P1  H  3712  3721       L1     6  0.94

> <Gold.PLP.Chemscore.Internal.Correction>
1.1144

