#       Name:                EN300-64755_i001
#       Creating user name   fsindt
#       Creation time:       Wed Mar  1 23:48:43 2023


#       File generated by GOLD software.
#

@<TRIPOS>MOLECULE
EN300-64755_i001|acide_1|mol2|10628|dock2
    23    23     1
SMALL
USER_CHARGES


@<TRIPOS>ATOM
      1 C1          -3.0640 -11.9154   9.7798 C.3            1 <1>                0.0000
      2 C2          -1.6646 -11.3016   9.8551 C.3            1 <1>                0.0000
      3 C3          -1.6933  -9.8921   9.2605 C.3            1 <1>                0.0000
      4 C4          -1.2238 -11.2307  11.2945 C.2            1 <1>                0.0000
      5 O5          -0.8046 -10.1816  11.7527 O.co2          1 <1>                0.0000
      6 O6          -1.2865 -12.2227  12.0006 O.co2          1 <1>               -1.0000
      7 C7          -0.6987 -12.1561   9.0754 C.ar           1 <1>                0.0000
      8 C8          -0.4361 -13.4503   9.4835 C.ar           1 <1>                0.0000
      9 C9           0.4499 -14.2348   8.7686 C.ar           1 <1>                0.0000
     10 C10          1.0735 -13.7251   7.6456 C.ar           1 <1>                0.0000
     11 C11          0.8107 -12.4299   7.2364 C.ar           1 <1>                0.0000
     12 Br12         1.6637 -11.7320   5.6998 Br             1 <1>                0.0000
     13 C13         -0.0797 -11.6474   7.9489 C.ar           1 <1>                0.0000
     14 H14         -3.3828 -11.9667   8.7387 H              1 <1>                0.0000
     15 H15         -3.0436 -12.9196  10.2034 H              1 <1>                0.0000
     16 H16         -3.7626 -11.2974  10.3437 H              1 <1>                0.0000
     17 H17         -2.3920  -9.2741   9.8244 H              1 <1>                0.0000
     18 H18         -0.6963  -9.4548   9.3141 H              1 <1>                0.0000
     19 H19         -2.0120  -9.9434   8.2194 H              1 <1>                0.0000
     20 H20         -0.9230 -13.8489  10.3613 H              1 <1>                0.0000
     21 H21          0.6550 -15.2459   9.0880 H              1 <1>                0.0000
     22 H22          1.7662 -14.3377   7.0876 H              1 <1>                0.0000
     23 H23         -0.2851 -10.6362   7.6299 H              1 <1>                0.0000
@<TRIPOS>BOND
    1    1    2 1     
    2    1   14 1     
    3    1   15 1     
    4    1   16 1     
    5    2    3 1     
    6    2    4 1     
    7    2    7 1     
    8    3   17 1     
    9    3   18 1     
   10    3   19 1     
   11    4    5 ar    
   12    4    6 ar    
   13    7    8 ar    
   14    7   13 ar    
   15    8    9 ar    
   16    8   20 1     
   17    9   10 ar    
   18    9   21 1     
   19   10   11 ar    
   20   10   22 1     
   21   11   12 1     
   22   11   13 ar    
   23   13   23 1     
@<TRIPOS>SUBSTRUCTURE
      1 ****           1
@<TRIPOS>COMMENT
> <Gold.Version>
2022.2.0

> <Gold.Id.Protein>
3pbl|protein|mol2

> <Gold.Protein.RotatedTorsions>
[ 1303 1298 1297 1294 ] final   18.60 input  179.99 | X-H torsion
[ 2461 2456 2455 2452 ] final  137.39 input   30.03 | X-H torsion
[ 2515 2510 2509 2506 ] final   10.87 input  -89.99 | X-H torsion
[ 3721 3712 3711 3710 ] final   23.22 input -179.91 | X-H torsion
[ 3841 3832 3831 3830 ] final -121.86 input -179.91 | X-H torsion
[ 3767 3762 3761 3758 ] final  143.47 input  -89.99 | X-H torsion
[ 2472 2467 2466 2463 ] final  -56.34 input  -89.97 | X-H torsion

> <Gold.Protein.ActiveResidues>
 VAL82   VAL86   LEU89   PHE106  VAL107  ASP110  VAL111  MET112  CYS114  THR115 
 CYS181  SER182  ILE183  PHE188  VAL189  ILE190  SER192  SER193  SER196  TRP342 
 PHE345  PHE346  HIS349  VAL350  TYR365  THR369  GLY372  TYR373 

> <Gold.Protein.RotatedAtoms>
    3.5184  -10.0847    4.2216 H   0  0  0  0  0  0  0  0  0  0  0  0  # atno 1303 bound_to 1298
    2.0008   -8.8484    8.2251 H   0  0  0  0  0  0  0  0  0  0  0  0  # atno 2461 bound_to 2456
   -3.7028   -5.1668    8.9091 H   0  0  0  0  0  0  0  0  0  0  0  0  # atno 2472 bound_to 2467
    2.4657   -7.5287    4.7350 H   0  0  0  0  0  0  0  0  0  0  0  0  # atno 2515 bound_to 2510
   -2.4732  -18.0333   13.9026 H   0  0  0  0  0  0  0  0  0  0  0  0  # atno 3721 bound_to 3712
   -3.9081  -22.9702   11.2153 H   0  0  0  0  0  0  0  0  0  0  0  0  # atno 3767 bound_to 3762
    2.2490  -19.5983    8.4458 H   0  0  0  0  0  0  0  0  0  0  0  0  # atno 3841 bound_to 3832
    3.9776   -8.5429    3.9418 LP  0  0  0  0  0  0  0  0  0  0  0  0  # atno 4297 bound_to 1298
    4.8664   -9.4934    4.9283 LP  0  0  0  0  0  0  0  0  0  0  0  0  # atno 4298 bound_to 1298
    1.3171   -7.9253    7.0642 LP  0  0  0  0  0  0  0  0  0  0  0  0  # atno 4299 bound_to 2456
    0.4201   -9.0345    7.8591 LP  0  0  0  0  0  0  0  0  0  0  0  0  # atno 4300 bound_to 2456
    2.7639   -9.1301    4.8462 LP  0  0  0  0  0  0  0  0  0  0  0  0  # atno 4301 bound_to 2510
    2.0671   -8.3407    6.0943 LP  0  0  0  0  0  0  0  0  0  0  0  0  # atno 4302 bound_to 2510
   -3.2854  -16.9155   14.7202 LP  0  0  0  0  0  0  0  0  0  0  0  0  # atno 4306 bound_to 3712
   -3.3869  -16.9911   13.0921 LP  0  0  0  0  0  0  0  0  0  0  0  0  # atno 4307 bound_to 3712
    3.0513  -20.9335    8.8328 LP  0  0  0  0  0  0  0  0  0  0  0  0  # atno 4314 bound_to 3832
    1.5801  -20.6329    9.4746 LP  0  0  0  0  0  0  0  0  0  0  0  0  # atno 4315 bound_to 3832
   -5.0671  -22.9902   10.0650 LP  0  0  0  0  0  0  0  0  0  0  0  0  # atno 4318 bound_to 3762
   -5.1519  -21.9147   11.2909 LP  0  0  0  0  0  0  0  0  0  0  0  0  # atno 4319 bound_to 3762
   -5.3113   -5.3997    9.0665 LP  0  0  0  0  0  0  0  0  0  0  0  0  # atno 4320 bound_to 2467
   -4.7026   -4.8271    7.6636 LP  0  0  0  0  0  0  0  0  0  0  0  0  # atno 4321 bound_to 2467

> <Gold.Score>
     Score     S(PLP)   S(hbond)     S(cho)   S(metal)  DE(clash)   DE(tors)     intcor
     42.88     -43.38       0.00       0.00       0.00       1.04       0.28       1.11

> <Gold.PLP.Fitness>
42.8845

> <Gold.PLP.PLP>
-43.3817

> <Gold.PLP.part.hbond>
-1.0000

> <Gold.PLP.part.metal>
0.0000

> <Gold.PLP.part.buried>
-3.1585

> <Gold.PLP.part.nonpolar>
-40.0297

> <Gold.PLP.part.repulsive>
0.1229

> <Gold.PLP.ligand.clash>
1.0419

> <Gold.PLP.ligand.torsion>
0.2849

> <Gold.PLP.Chemscore.Hbond>
0.0000

> <Gold.PLP.Chemscore.CHOScore>
0.0000

> <Gold.PLP.Chemscore.Metal>
0.0000

> <Gold.PLP.Chemscore.Internal.Correction>
1.1144

