#       Name:                EN300-64755_i001
#       Creating user name   fsindt
#       Creation time:       Wed Mar  1 23:48:46 2023


#       File generated by GOLD software.
#

@<TRIPOS>MOLECULE
EN300-64755_i001|acide_1|mol2|10628|dock13
    23    23     1
SMALL
USER_CHARGES


@<TRIPOS>ATOM
      1 C1           2.6144 -17.6822  13.1476 C.3            1 <1>                0.0000
      2 C2           1.5026 -18.3098  13.9908 C.3            1 <1>                0.0000
      3 C3           2.0341 -18.6096  15.3938 C.3            1 <1>                0.0000
      4 C4           0.3433 -17.3517  14.0869 C.2            1 <1>                0.0000
      5 O5          -0.7651 -17.6966  13.7142 O.co2          1 <1>                0.0000
      6 O6           0.5140 -16.2316  14.5374 O.co2          1 <1>               -1.0000
      7 C7           1.0433 -19.5907  13.3433 C.ar           1 <1>                0.0000
      8 C8           0.5462 -19.5735  12.0536 C.ar           1 <1>                0.0000
      9 C9           0.1247 -20.7484  11.4590 C.ar           1 <1>                0.0000
     10 C10          0.2002 -21.9405  12.1540 C.ar           1 <1>                0.0000
     11 C11          0.6981 -21.9583  13.4446 C.ar           1 <1>                0.0000
     12 Br12         0.8016 -23.5893  14.3960 Br             1 <1>                0.0000
     13 C13          1.1245 -20.7836  14.0371 C.ar           1 <1>                0.0000
     14 H14          3.4529 -18.3752  13.0781 H              1 <1>                0.0000
     15 H15          2.2358 -17.4686  12.1480 H              1 <1>                0.0000
     16 H16          2.9466 -16.7558  13.6159 H              1 <1>                0.0000
     17 H17          2.3664 -17.6831  15.8621 H              1 <1>                0.0000
     18 H18          1.2421 -19.0567  15.9945 H              1 <1>                0.0000
     19 H19          2.8726 -19.3026  15.3243 H              1 <1>                0.0000
     20 H20          0.4868 -18.6419  11.5104 H              1 <1>                0.0000
     21 H21         -0.2639 -20.7344  10.4515 H              1 <1>                0.0000
     22 H22         -0.1298 -22.8582  11.6896 H              1 <1>                0.0000
     23 H23          1.5132 -20.7970  15.0446 H              1 <1>                0.0000
@<TRIPOS>BOND
    1    1    2 1     
    2    1   14 1     
    3    1   15 1     
    4    1   16 1     
    5    2    3 1     
    6    2    4 1     
    7    2    7 1     
    8    3   17 1     
    9    3   18 1     
   10    3   19 1     
   11    4    5 ar    
   12    4    6 ar    
   13    7    8 ar    
   14    7   13 ar    
   15    8    9 ar    
   16    8   20 1     
   17    9   10 ar    
   18    9   21 1     
   19   10   11 ar    
   20   10   22 1     
   21   11   12 1     
   22   11   13 ar    
   23   13   23 1     
@<TRIPOS>SUBSTRUCTURE
      1 ****           1
@<TRIPOS>COMMENT
> <Gold.Version>
2022.2.0

> <Gold.Id.Protein>
3pbl|protein|mol2

> <Gold.Protein.RotatedTorsions>
[ 1303 1298 1297 1294 ] final   -0.86 input  179.99 | X-H torsion
[ 2461 2456 2455 2452 ] final  -10.84 input   30.03 | X-H torsion
[ 2515 2510 2509 2506 ] final  -34.07 input  -89.99 | X-H torsion
[ 3721 3712 3711 3710 ] final   15.56 input -179.91 | X-H torsion
[ 3841 3832 3831 3830 ] final  145.17 input -179.91 | X-H torsion
[ 3767 3762 3761 3758 ] final  -89.43 input  -89.99 | X-H torsion
[ 2472 2467 2466 2463 ] final -106.89 input  -89.97 | X-H torsion

> <Gold.Protein.ActiveResidues>
 VAL82   VAL86   LEU89   PHE106  VAL107  ASP110  VAL111  MET112  CYS114  THR115 
 CYS181  SER182  ILE183  PHE188  VAL189  ILE190  SER192  SER193  SER196  TRP342 
 PHE345  PHE346  HIS349  VAL350  TYR365  THR369  GLY372  TYR373 

> <Gold.Protein.RotatedAtoms>
    3.3818   -9.8613    4.0400 H   0  0  0  0  0  0  0  0  0  0  0  0  # atno 1303 bound_to 1298
    0.8767   -8.0566    7.0416 H   0  0  0  0  0  0  0  0  0  0  0  0  # atno 2461 bound_to 2456
   -4.2912   -5.4092    9.4023 H   0  0  0  0  0  0  0  0  0  0  0  0  # atno 2472 bound_to 2467
    2.7400   -8.0855    4.3694 H   0  0  0  0  0  0  0  0  0  0  0  0  # atno 2515 bound_to 2510
   -2.4699  -18.0213   14.0176 H   0  0  0  0  0  0  0  0  0  0  0  0  # atno 3721 bound_to 3712
   -5.2309  -21.9209   11.2051 H   0  0  0  0  0  0  0  0  0  0  0  0  # atno 3767 bound_to 3762
    3.1312  -20.4623    8.6732 H   0  0  0  0  0  0  0  0  0  0  0  0  # atno 3841 bound_to 3832
    4.2451   -8.4766    4.1019 LP  0  0  0  0  0  0  0  0  0  0  0  0  # atno 4297 bound_to 1298
    4.7355   -9.7833    4.9498 LP  0  0  0  0  0  0  0  0  0  0  0  0  # atno 4298 bound_to 1298
    0.7051   -9.2352    8.1591 LP  0  0  0  0  0  0  0  0  0  0  0  0  # atno 4299 bound_to 2456
    2.1558   -8.5162    7.9472 LP  0  0  0  0  0  0  0  0  0  0  0  0  # atno 4300 bound_to 2456
    2.5045   -9.2285    5.5113 LP  0  0  0  0  0  0  0  0  0  0  0  0  # atno 4301 bound_to 2510
    2.0521   -7.6853    5.7950 LP  0  0  0  0  0  0  0  0  0  0  0  0  # atno 4302 bound_to 2510
   -3.3420  -16.8284   14.6455 LP  0  0  0  0  0  0  0  0  0  0  0  0  # atno 4306 bound_to 3712
   -3.3342  -17.0921   13.0340 LP  0  0  0  0  0  0  0  0  0  0  0  0  # atno 4307 bound_to 3712
    1.8606  -20.9075    9.5469 LP  0  0  0  0  0  0  0  0  0  0  0  0  # atno 4314 bound_to 3832
    1.7517  -19.6607    8.4979 LP  0  0  0  0  0  0  0  0  0  0  0  0  # atno 4315 bound_to 3832
   -3.9209  -22.8912   11.3004 LP  0  0  0  0  0  0  0  0  0  0  0  0  # atno 4318 bound_to 3762
   -4.9757  -23.0626   10.0657 LP  0  0  0  0  0  0  0  0  0  0  0  0  # atno 4319 bound_to 3762
   -5.4877   -5.1506    8.3215 LP  0  0  0  0  0  0  0  0  0  0  0  0  # atno 4320 bound_to 2467
   -3.9380   -4.8338    7.9155 LP  0  0  0  0  0  0  0  0  0  0  0  0  # atno 4321 bound_to 2467

> <Gold.Score>
     Score     S(PLP)   S(hbond)     S(cho)   S(metal)  DE(clash)   DE(tors)     intcor
     37.82     -32.62       1.75       0.00       0.00       1.11       0.03       1.11

> <Gold.PLP.Fitness>
37.8238

> <Gold.PLP.PLP>
-32.6176

> <Gold.PLP.part.hbond>
-1.9553

> <Gold.PLP.part.metal>
0.0000

> <Gold.PLP.part.buried>
-1.1106

> <Gold.PLP.part.nonpolar>
-30.0343

> <Gold.PLP.part.repulsive>
0.0448

> <Gold.PLP.ligand.clash>
1.1111

> <Gold.PLP.ligand.torsion>
0.0265

> <Gold.PLP.Chemscore.Hbond>
1.7520

> <Gold.PLP.Chemscore.CHOScore>
0.0000

> <Gold.PLP.Chemscore.Metal>
0.0000

> <Gold.Chemscore.Hbonds>
donor molecule, donor type, donor heavy atom, donor atom, acceptor molecule, acceptor atom, score
      P1  H  2305  2313       L1     6  1.00
      P1  H  3712  3721       L1     5  0.75

> <Gold.PLP.Chemscore.Internal.Correction>
1.1144

