#       Name:                EN300-64755_i001
#       Creating user name   fsindt
#       Creation time:       Wed Mar  1 23:48:46 2023


#       File generated by GOLD software.
#

@<TRIPOS>MOLECULE
EN300-64755_i001|acide_1|mol2|10628|dock12
    23    23     1
SMALL
USER_CHARGES


@<TRIPOS>ATOM
      1 C1          -1.5968 -11.1023  11.9998 C.3            1 <1>                0.0000
      2 C2          -1.1224 -11.5876  10.6286 C.3            1 <1>                0.0000
      3 C3          -2.2786 -11.5041   9.6300 C.3            1 <1>                0.0000
      4 C4           0.0147 -10.7197  10.1543 C.2            1 <1>                0.0000
      5 O5           0.4495  -9.8372  10.8745 O.co2          1 <1>                0.0000
      6 O6           0.4998 -10.9002   9.0504 O.co2          1 <1>               -1.0000
      7 C7          -0.6534 -13.0158  10.7358 C.ar           1 <1>                0.0000
      8 C8          -0.1541 -13.6645   9.6220 C.ar           1 <1>                0.0000
      9 C9           0.2763 -14.9748   9.7197 C.ar           1 <1>                0.0000
     10 C10          0.2076 -15.6363  10.9311 C.ar           1 <1>                0.0000
     11 C11         -0.2916 -14.9873  12.0463 C.ar           1 <1>                0.0000
     12 Br12        -0.3859 -15.8920  13.7041 Br             1 <1>                0.0000
     13 C13         -0.7172 -13.6749  11.9492 C.ar           1 <1>                0.0000
     14 H14         -2.4192 -11.7301  12.3429 H              1 <1>                0.0000
     15 H15         -0.7731 -11.1619  12.7113 H              1 <1>                0.0000
     16 H16         -1.9360 -10.0694  11.9223 H              1 <1>                0.0000
     17 H17         -2.6178 -10.4711   9.5526 H              1 <1>                0.0000
     18 H18         -1.9406 -11.8498   8.6531 H              1 <1>                0.0000
     19 H19         -3.1010 -12.1318   9.9730 H              1 <1>                0.0000
     20 H20         -0.1006 -13.1479   8.6751 H              1 <1>                0.0000
     21 H21          0.6661 -15.4814   8.8492 H              1 <1>                0.0000
     22 H22          0.5432 -16.6601  11.0072 H              1 <1>                0.0000
     23 H23         -1.1070 -13.1678  12.8194 H              1 <1>                0.0000
@<TRIPOS>BOND
    1    1    2 1     
    2    1   14 1     
    3    1   15 1     
    4    1   16 1     
    5    2    3 1     
    6    2    4 1     
    7    2    7 1     
    8    3   17 1     
    9    3   18 1     
   10    3   19 1     
   11    4    5 ar    
   12    4    6 ar    
   13    7    8 ar    
   14    7   13 ar    
   15    8    9 ar    
   16    8   20 1     
   17    9   10 ar    
   18    9   21 1     
   19   10   11 ar    
   20   10   22 1     
   21   11   12 1     
   22   11   13 ar    
   23   13   23 1     
@<TRIPOS>SUBSTRUCTURE
      1 ****           1
@<TRIPOS>COMMENT
> <Gold.Version>
2022.2.0

> <Gold.Id.Protein>
3pbl|protein|mol2

> <Gold.Protein.RotatedTorsions>
[ 1303 1298 1297 1294 ] final -137.18 input  179.99 | X-H torsion
[ 2461 2456 2455 2452 ] final -164.95 input   30.03 | X-H torsion
[ 2515 2510 2509 2506 ] final   -4.96 input  -89.99 | X-H torsion
[ 3721 3712 3711 3710 ] final -171.92 input -179.91 | X-H torsion
[ 3841 3832 3831 3830 ] final -131.75 input -179.91 | X-H torsion
[ 3767 3762 3761 3758 ] final -167.67 input  -89.99 | X-H torsion
[ 2472 2467 2466 2463 ] final  -57.04 input  -89.97 | X-H torsion

> <Gold.Protein.ActiveResidues>
 VAL82   VAL86   LEU89   PHE106  VAL107  ASP110  VAL111  MET112  CYS114  THR115 
 CYS181  SER182  ILE183  PHE188  VAL189  ILE190  SER192  SER193  SER196  TRP342 
 PHE345  PHE346  HIS349  VAL350  TYR365  THR369  GLY372  TYR373 

> <Gold.Protein.RotatedAtoms>
    4.4593   -8.5002    4.2606 H   0  0  0  0  0  0  0  0  0  0  0  0  # atno 1303 bound_to 1298
    1.2121   -9.2753    8.3762 H   0  0  0  0  0  0  0  0  0  0  0  0  # atno 2461 bound_to 2456
   -3.7071   -5.1708    8.9189 H   0  0  0  0  0  0  0  0  0  0  0  0  # atno 2472 bound_to 2467
    2.5741   -7.6835    4.5571 H   0  0  0  0  0  0  0  0  0  0  0  0  # atno 2515 bound_to 2510
   -3.3346  -16.5675   13.6612 H   0  0  0  0  0  0  0  0  0  0  0  0  # atno 3721 bound_to 3712
   -4.2189  -22.3844   11.6258 H   0  0  0  0  0  0  0  0  0  0  0  0  # atno 3767 bound_to 3762
    2.3845  -19.6356    8.3954 H   0  0  0  0  0  0  0  0  0  0  0  0  # atno 3841 bound_to 3832
    4.5706   -9.9916    4.9160 LP  0  0  0  0  0  0  0  0  0  0  0  0  # atno 4297 bound_to 1298
    3.3321   -9.6299    3.9150 LP  0  0  0  0  0  0  0  0  0  0  0  0  # atno 4298 bound_to 1298
    2.0550   -8.1496    7.5458 LP  0  0  0  0  0  0  0  0  0  0  0  0  # atno 4299 bound_to 2456
    0.4707   -8.3834    7.2263 LP  0  0  0  0  0  0  0  0  0  0  0  0  # atno 4300 bound_to 2456
    2.6886   -9.2278    5.0746 LP  0  0  0  0  0  0  0  0  0  0  0  0  # atno 4301 bound_to 2510
    2.0340   -8.0882    6.0438 LP  0  0  0  0  0  0  0  0  0  0  0  0  # atno 4302 bound_to 2510
   -2.7817  -18.0209   13.2617 LP  0  0  0  0  0  0  0  0  0  0  0  0  # atno 4306 bound_to 3712
   -2.8961  -17.5780   14.8293 LP  0  0  0  0  0  0  0  0  0  0  0  0  # atno 4307 bound_to 3712
    2.9780  -21.0183    8.9541 LP  0  0  0  0  0  0  0  0  0  0  0  0  # atno 4314 bound_to 3832
    1.4969  -20.5049    9.4116 LP  0  0  0  0  0  0  0  0  0  0  0  0  # atno 4315 bound_to 3832
   -4.4041  -23.3244   10.3033 LP  0  0  0  0  0  0  0  0  0  0  0  0  # atno 4318 bound_to 3762
   -5.5042  -22.1662   10.6423 LP  0  0  0  0  0  0  0  0  0  0  0  0  # atno 4319 bound_to 3762
   -5.3183   -5.3973    9.0577 LP  0  0  0  0  0  0  0  0  0  0  0  0  # atno 4320 bound_to 2467
   -4.6913   -4.8255    7.6625 LP  0  0  0  0  0  0  0  0  0  0  0  0  # atno 4321 bound_to 2467

> <Gold.Score>
     Score     S(PLP)   S(hbond)     S(cho)   S(metal)  DE(clash)   DE(tors)     intcor
     41.62     -38.69       1.00       0.00       0.00       1.11       0.04       1.11

> <Gold.PLP.Fitness>
41.6240

> <Gold.PLP.PLP>
-38.6937

> <Gold.PLP.part.hbond>
-1.1598

> <Gold.PLP.part.metal>
0.0000

> <Gold.PLP.part.buried>
-2.8019

> <Gold.PLP.part.nonpolar>
-35.3558

> <Gold.PLP.part.repulsive>
0.0470

> <Gold.PLP.ligand.clash>
1.1118

> <Gold.PLP.ligand.torsion>
0.0361

> <Gold.PLP.Chemscore.Hbond>
1.0000

> <Gold.PLP.Chemscore.CHOScore>
0.0000

> <Gold.PLP.Chemscore.Metal>
0.0000

> <Gold.Chemscore.Hbonds>
donor molecule, donor type, donor heavy atom, donor atom, acceptor molecule, acceptor atom, score
      P1  H  2456  2461       L1     6  1.00

> <Gold.PLP.Chemscore.Internal.Correction>
1.1144

