#       Name:                EN300-64755_i001
#       Creating user name   fsindt
#       Creation time:       Wed Mar  1 23:48:45 2023


#       File generated by GOLD software.
#

@<TRIPOS>MOLECULE
EN300-64755_i001|acide_1|mol2|10628|dock10
    23    23     1
SMALL
USER_CHARGES


@<TRIPOS>ATOM
      1 C1           1.2506 -12.0380   7.1311 C.3            1 <1>                0.0000
      2 C2           0.3103 -12.8109   8.0581 C.3            1 <1>                0.0000
      3 C3          -0.7657 -13.5104   7.2251 C.3            1 <1>                0.0000
      4 C4           1.0976 -13.8399   8.8279 C.2            1 <1>                0.0000
      5 O5           1.1322 -13.7951  10.0458 O.co2          1 <1>                0.0000
      6 O6           1.6999 -14.7170   8.2326 O.co2          1 <1>               -1.0000
      7 C7          -0.3433 -11.8543   9.0218 C.ar           1 <1>                0.0000
      8 C8           0.4307 -11.1322   9.9106 C.ar           1 <1>                0.0000
      9 C9          -0.1683 -10.2544  10.7949 C.ar           1 <1>                0.0000
     10 C10         -1.5415 -10.0986  10.7906 C.ar           1 <1>                0.0000
     11 C11         -2.3167 -10.8208   9.9009 C.ar           1 <1>                0.0000
     12 Br12        -4.1956 -10.6080   9.8945 Br             1 <1>                0.0000
     13 C13         -1.7164 -11.6948   9.0129 C.ar           1 <1>                0.0000
     14 H14          0.6812 -11.2937   6.5744 H              1 <1>                0.0000
     15 H15          2.0172 -11.5396   7.7246 H              1 <1>                0.0000
     16 H16          1.7234 -12.7298   6.4341 H              1 <1>                0.0000
     17 H17         -0.2929 -14.2022   6.5280 H              1 <1>                0.0000
     18 H18         -1.4356 -14.0610   7.8854 H              1 <1>                0.0000
     19 H19         -1.3351 -12.7661   6.6683 H              1 <1>                0.0000
     20 H20          1.5039 -11.2539   9.9144 H              1 <1>                0.0000
     21 H21          0.4368  -9.6906  11.4895 H              1 <1>                0.0000
     22 H22         -2.0095  -9.4134  11.4820 H              1 <1>                0.0000
     23 H23         -2.3211 -12.2589   8.3182 H              1 <1>                0.0000
@<TRIPOS>BOND
    1    1    2 1     
    2    1   14 1     
    3    1   15 1     
    4    1   16 1     
    5    2    3 1     
    6    2    4 1     
    7    2    7 1     
    8    3   17 1     
    9    3   18 1     
   10    3   19 1     
   11    4    5 ar    
   12    4    6 ar    
   13    7    8 ar    
   14    7   13 ar    
   15    8    9 ar    
   16    8   20 1     
   17    9   10 ar    
   18    9   21 1     
   19   10   11 ar    
   20   10   22 1     
   21   11   12 1     
   22   11   13 ar    
   23   13   23 1     
@<TRIPOS>SUBSTRUCTURE
      1 ****           1
@<TRIPOS>COMMENT
> <Gold.Version>
2022.2.0

> <Gold.Id.Protein>
3pbl|protein|mol2

> <Gold.Protein.RotatedTorsions>
[ 1303 1298 1297 1294 ] final   49.63 input  179.99 | X-H torsion
[ 2461 2456 2455 2452 ] final  -11.49 input   30.03 | X-H torsion
[ 2515 2510 2509 2506 ] final -132.19 input  -89.99 | X-H torsion
[ 3721 3712 3711 3710 ] final  -51.10 input -179.91 | X-H torsion
[ 3841 3832 3831 3830 ] final   40.55 input -179.91 | X-H torsion
[ 3767 3762 3761 3758 ] final -119.96 input  -89.99 | X-H torsion
[ 2472 2467 2466 2463 ] final   73.36 input  -89.97 | X-H torsion

> <Gold.Protein.ActiveResidues>
 VAL82   VAL86   LEU89   PHE106  VAL107  ASP110  VAL111  MET112  CYS114  THR115 
 CYS181  SER182  ILE183  PHE188  VAL189  ILE190  SER192  SER193  SER196  TRP342 
 PHE345  PHE346  HIS349  VAL350  TYR365  THR369  GLY372  TYR373 

> <Gold.Protein.RotatedAtoms>
    3.8690  -10.2658    4.5355 H   0  0  0  0  0  0  0  0  0  0  0  0  # atno 1303 bound_to 1298
    0.8674   -8.0613    7.0430 H   0  0  0  0  0  0  0  0  0  0  0  0  # atno 2461 bound_to 2456
   -4.8573   -4.8549    7.6912 H   0  0  0  0  0  0  0  0  0  0  0  0  # atno 2472 bound_to 2467
    2.6474   -9.2497    5.1839 H   0  0  0  0  0  0  0  0  0  0  0  0  # atno 2515 bound_to 2510
   -2.7360  -17.4465   14.7281 H   0  0  0  0  0  0  0  0  0  0  0  0  # atno 3721 bound_to 3712
   -4.8492  -21.9682   11.5189 H   0  0  0  0  0  0  0  0  0  0  0  0  # atno 3767 bound_to 3762
    2.2052  -20.8590    9.6017 H   0  0  0  0  0  0  0  0  0  0  0  0  # atno 3841 bound_to 3832
    3.5969   -8.8378    3.7917 LP  0  0  0  0  0  0  0  0  0  0  0  0  # atno 4297 bound_to 1298
    4.8963   -9.0174    4.7643 LP  0  0  0  0  0  0  0  0  0  0  0  0  # atno 4298 bound_to 1298
    0.7134   -9.2382    8.1649 LP  0  0  0  0  0  0  0  0  0  0  0  0  # atno 4299 bound_to 2456
    2.1569   -8.5086    7.9400 LP  0  0  0  0  0  0  0  0  0  0  0  0  # atno 4300 bound_to 2456
    2.0288   -7.9778    5.9997 LP  0  0  0  0  0  0  0  0  0  0  0  0  # atno 4301 bound_to 2510
    2.6204   -7.7712    4.4917 LP  0  0  0  0  0  0  0  0  0  0  0  0  # atno 4302 bound_to 2510
   -3.5620  -16.6000   13.6423 LP  0  0  0  0  0  0  0  0  0  0  0  0  # atno 4306 bound_to 3712
   -2.8069  -17.9840   13.2169 LP  0  0  0  0  0  0  0  0  0  0  0  0  # atno 4307 bound_to 3712
    1.6118  -19.7207    8.6383 LP  0  0  0  0  0  0  0  0  0  0  0  0  # atno 4314 bound_to 3832
    3.0702  -20.3893    8.3339 LP  0  0  0  0  0  0  0  0  0  0  0  0  # atno 4315 bound_to 3832
   -3.9552  -23.1890   10.9048 LP  0  0  0  0  0  0  0  0  0  0  0  0  # atno 4318 bound_to 3762
   -5.3231  -22.7176   10.1476 LP  0  0  0  0  0  0  0  0  0  0  0  0  # atno 4319 bound_to 3762
   -3.6561   -5.1098    8.7676 LP  0  0  0  0  0  0  0  0  0  0  0  0  # atno 4320 bound_to 2467
   -5.2036   -5.4288    9.1802 LP  0  0  0  0  0  0  0  0  0  0  0  0  # atno 4321 bound_to 2467

> <Gold.Score>
     Score     S(PLP)   S(hbond)     S(cho)   S(metal)  DE(clash)   DE(tors)     intcor
     48.03     -48.04       0.00       0.00       0.00       1.10       0.01       1.11

> <Gold.PLP.Fitness>
48.0311

> <Gold.PLP.PLP>
-48.0430

> <Gold.PLP.part.hbond>
0.0000

> <Gold.PLP.part.metal>
0.0000

> <Gold.PLP.part.buried>
-4.3552

> <Gold.PLP.part.nonpolar>
-44.1433

> <Gold.PLP.part.repulsive>
0.2729

> <Gold.PLP.ligand.clash>
1.0991

> <Gold.PLP.ligand.torsion>
0.0136

> <Gold.PLP.Chemscore.Hbond>
0.0000

> <Gold.PLP.Chemscore.CHOScore>
0.0000

> <Gold.PLP.Chemscore.Metal>
0.0000

> <Gold.PLP.Chemscore.Internal.Correction>
1.1144

