#       Name:                EN300-64755_i001
#       Creating user name   fsindt
#       Creation time:       Wed Mar  1 23:48:48 2023


#       File generated by GOLD software.
#

@<TRIPOS>MOLECULE
EN300-64755_i001|acide_1|mol2|10628|dock19
    23    23     1
SMALL
USER_CHARGES


@<TRIPOS>ATOM
      1 C1          -1.1622 -12.8264  11.2212 C.3            1 <1>                0.0000
      2 C2          -1.3998 -11.8927  10.0326 C.3            1 <1>                0.0000
      3 C3          -2.8649 -11.9799   9.6004 C.3            1 <1>                0.0000
      4 C4          -1.0779 -10.4763  10.4342 C.2            1 <1>                0.0000
      5 O5           0.0389 -10.1949  10.8342 O.co2          1 <1>                0.0000
      6 O6          -1.9345  -9.6119  10.3592 O.co2          1 <1>               -1.0000
      7 C7          -0.5125 -12.3036   8.8859 C.ar           1 <1>                0.0000
      8 C8           0.0913 -11.3403   8.0998 C.ar           1 <1>                0.0000
      9 C9           0.9055 -11.7166   7.0476 C.ar           1 <1>                0.0000
     10 C10          1.1159 -13.0563   6.7814 C.ar           1 <1>                0.0000
     11 C11          0.5122 -14.0209   7.5682 C.ar           1 <1>                0.0000
     12 Br12         0.7998 -15.8541   7.2045 Br             1 <1>                0.0000
     13 C13         -0.2980 -13.6438   8.6239 C.ar           1 <1>                0.0000
     14 H14         -1.3950 -13.8508  10.9306 H              1 <1>                0.0000
     15 H15         -0.1185 -12.7643  11.5290 H              1 <1>                0.0000
     16 H16         -1.8040 -12.5292  12.0505 H              1 <1>                0.0000
     17 H17         -3.5066 -11.6828  10.4298 H              1 <1>                0.0000
     18 H18         -3.0341 -11.3148   8.7536 H              1 <1>                0.0000
     19 H19         -3.0977 -13.0043   9.3099 H              1 <1>                0.0000
     20 H20         -0.0732 -10.2932   8.3073 H              1 <1>                0.0000
     21 H21          1.3768 -10.9636   6.4334 H              1 <1>                0.0000
     22 H22          1.7514 -13.3502   5.9590 H              1 <1>                0.0000
     23 H23         -0.7695 -14.3965   9.2383 H              1 <1>                0.0000
@<TRIPOS>BOND
    1    1    2 1     
    2    1   14 1     
    3    1   15 1     
    4    1   16 1     
    5    2    3 1     
    6    2    4 1     
    7    2    7 1     
    8    3   17 1     
    9    3   18 1     
   10    3   19 1     
   11    4    5 ar    
   12    4    6 ar    
   13    7    8 ar    
   14    7   13 ar    
   15    8    9 ar    
   16    8   20 1     
   17    9   10 ar    
   18    9   21 1     
   19   10   11 ar    
   20   10   22 1     
   21   11   12 1     
   22   11   13 ar    
   23   13   23 1     
@<TRIPOS>SUBSTRUCTURE
      1 ****           1
@<TRIPOS>COMMENT
> <Gold.Version>
2022.2.0

> <Gold.Id.Protein>
3pbl|protein|mol2

> <Gold.Protein.RotatedTorsions>
[ 1303 1298 1297 1294 ] final  143.02 input  179.99 | X-H torsion
[ 2461 2456 2455 2452 ] final -164.57 input   30.03 | X-H torsion
[ 2515 2510 2509 2506 ] final   73.00 input  -89.99 | X-H torsion
[ 3721 3712 3711 3710 ] final  -26.09 input -179.91 | X-H torsion
[ 3841 3832 3831 3830 ] final   22.20 input -179.91 | X-H torsion
[ 3767 3762 3761 3758 ] final  -28.26 input  -89.99 | X-H torsion
[ 2472 2467 2466 2463 ] final  121.94 input  -89.97 | X-H torsion

> <Gold.Protein.ActiveResidues>
 VAL82   VAL86   LEU89   PHE106  VAL107  ASP110  VAL111  MET112  CYS114  THR115 
 CYS181  SER182  ILE183  PHE188  VAL189  ILE190  SER192  SER193  SER196  TRP342 
 PHE345  PHE346  HIS349  VAL350  TYR365  THR369  GLY372  TYR373 

> <Gold.Protein.RotatedAtoms>
    4.8841   -9.4244    4.9145 H   0  0  0  0  0  0  0  0  0  0  0  0  # atno 1303 bound_to 1298
    1.2061   -9.2762    8.3750 H   0  0  0  0  0  0  0  0  0  0  0  0  # atno 2461 bound_to 2456
   -5.4308   -5.0866    8.1592 H   0  0  0  0  0  0  0  0  0  0  0  0  # atno 2472 bound_to 2467
    2.0924   -7.5542    5.6328 H   0  0  0  0  0  0  0  0  0  0  0  0  # atno 2515 bound_to 2510
   -2.5824  -17.7415   14.5545 H   0  0  0  0  0  0  0  0  0  0  0  0  # atno 3721 bound_to 3712
   -5.4942  -22.3721   10.4001 H   0  0  0  0  0  0  0  0  0  0  0  0  # atno 3767 bound_to 3762
    1.9691  -20.7174    9.6212 H   0  0  0  0  0  0  0  0  0  0  0  0  # atno 3841 bound_to 3832
    3.5597  -10.1251    4.2654 LP  0  0  0  0  0  0  0  0  0  0  0  0  # atno 4297 bound_to 1298
    3.9180   -8.5717    3.9116 LP  0  0  0  0  0  0  0  0  0  0  0  0  # atno 4298 bound_to 1298
    2.0578   -8.1530    7.5502 LP  0  0  0  0  0  0  0  0  0  0  0  0  # atno 4299 bound_to 2456
    0.4739   -8.3792    7.2232 LP  0  0  0  0  0  0  0  0  0  0  0  0  # atno 4300 bound_to 2456
    2.7906   -8.2912    4.3540 LP  0  0  0  0  0  0  0  0  0  0  0  0  # atno 4301 bound_to 2510
    2.4138   -9.1541    5.6882 LP  0  0  0  0  0  0  0  0  0  0  0  0  # atno 4302 bound_to 2510
   -3.5482  -16.5602   14.0549 LP  0  0  0  0  0  0  0  0  0  0  0  0  # atno 4306 bound_to 3712
   -2.9980  -17.6832   13.0048 LP  0  0  0  0  0  0  0  0  0  0  0  0  # atno 4307 bound_to 3712
    1.8274  -19.6441    8.4362 LP  0  0  0  0  0  0  0  0  0  0  0  0  # atno 4314 bound_to 3832
    3.1273  -20.6294    8.5135 LP  0  0  0  0  0  0  0  0  0  0  0  0  # atno 4315 bound_to 3832
   -4.4585  -22.1762   11.6473 LP  0  0  0  0  0  0  0  0  0  0  0  0  # atno 4318 bound_to 3762
   -4.1750  -23.3266   10.5235 LP  0  0  0  0  0  0  0  0  0  0  0  0  # atno 4319 bound_to 3762
   -3.8163   -4.8682    8.0482 LP  0  0  0  0  0  0  0  0  0  0  0  0  # atno 4320 bound_to 2467
   -4.4700   -5.4387    9.4317 LP  0  0  0  0  0  0  0  0  0  0  0  0  # atno 4321 bound_to 2467

> <Gold.Score>
     Score     S(PLP)   S(hbond)     S(cho)   S(metal)  DE(clash)   DE(tors)     intcor
     43.69     -44.37       0.00       0.00       0.00       0.00       0.89       1.11

> <Gold.PLP.Fitness>
43.6936

> <Gold.PLP.PLP>
-44.3686

> <Gold.PLP.part.hbond>
0.0000

> <Gold.PLP.part.metal>
0.0000

> <Gold.PLP.part.buried>
-3.4789

> <Gold.PLP.part.nonpolar>
-41.6748

> <Gold.PLP.part.repulsive>
0.1644

> <Gold.PLP.ligand.clash>
0.0000

> <Gold.PLP.ligand.torsion>
0.8947

> <Gold.PLP.Chemscore.Hbond>
0.0000

> <Gold.PLP.Chemscore.CHOScore>
0.0000

> <Gold.PLP.Chemscore.Metal>
0.0000

> <Gold.PLP.Chemscore.Internal.Correction>
1.1144

