#       Name:                plp ligand
#       Creating user name   fsindt
#       Creation time:       Wed Mar  1 23:48:43 2023


#       File generated by GOLD software.
#

@<TRIPOS>MOLECULE
plp ligand
    23    23     1
SMALL
USER_CHARGES


@<TRIPOS>ATOM
      1 C1           0.7244   2.0880   0.0418 NONPOLAR       1 <1>                0.0000
      2 C2           1.0591   0.5977  -0.0467 NONPOLAR       1 <1>                0.0000
      3 C3           1.7303   0.3046  -1.3900 NONPOLAR       1 <1>                0.0000
      4 C4           1.9951   0.2256   1.0743 NONPOLAR       1 <1>                0.0000
      5 O5           1.6637  -0.6169   1.8909 ACCEPTOR       1 <1>                0.0000
      6 O6           3.0837   0.7672   1.1645 ACCEPTOR       1 <1>               -1.0000
      7 C7          -0.2083  -0.2095   0.0683 NONPOLAR       1 <1>                0.0000
      8 C8          -0.1557  -1.5897   0.0153 NONPOLAR       1 <1>                0.0000
      9 C9          -1.3181  -2.3308   0.1208 NONPOLAR       1 <1>                0.0000
     10 C10         -2.5332  -1.6918   0.2793 NONPOLAR       1 <1>                0.0000
     11 C11         -2.5863  -0.3104   0.3329 NONPOLAR       1 <1>                0.0000
     12 Br12        -4.2486   0.5645   0.5498 NONPOLAR       1 <1>                0.0000
     13 C13         -1.4226   0.4303   0.2326 NONPOLAR       1 <1>                0.0000
     14 H14          0.0474   2.3571  -0.7690                1 <1>                0.0000
     15 H15          0.2462   2.2968   0.9988                1 <1>                0.0000
     16 H16          1.6410   2.6718  -0.0414                1 <1>                0.0000
     17 H17          2.6469   0.8885  -1.4732                1 <1>                0.0000
     18 H18          1.9687  -0.7571  -1.4531                1 <1>                0.0000
     19 H19          1.0533   0.5737  -2.2008                1 <1>                0.0000
     20 H20          0.7937  -2.0894  -0.1089                1 <1>                0.0000
     21 H21         -1.2766  -3.4092   0.0790                1 <1>                0.0000
     22 H22         -3.4413  -2.2708   0.3610                1 <1>                0.0000
     23 H23         -1.4636   1.5087   0.2743                1 <1>                0.0000
@<TRIPOS>BOND
    1    1    2 1     
    2    1   14 1     
    3    1   15 1     
    4    1   16 1     
    5    2    3 1     
    6    2    4 1     
    7    2    7 1     
    8    3   17 1     
    9    3   18 1     
   10    3   19 1     
   11    4    5 ar    
   12    4    6 ar    
   13    7    8 ar    
   14    7   13 ar    
   15    8    9 ar    
   16    8   20 1     
   17    9   10 ar    
   18    9   21 1     
   19   10   11 ar    
   20   10   22 1     
   21   11   12 1     
   22   11   13 ar    
   23   13   23 1     
@<TRIPOS>SUBSTRUCTURE
      1 ****           1
@<TRIPOS>SET
DONOR_HYDROGENS      STATIC     ATOMS    <user>   **** ""
0
ATOM$RED        STATIC     ATOMS    COLORGROUP SYSTEM
0
