#       Name:                EN300-02904_i001
#       Creating user name   fsindt
#       Creation time:       Tue Feb 28 08:10:28 2023


#       File generated by GOLD software.
#

@<TRIPOS>MOLECULE
EN300-02904_i001|amine_7|mol2|4351|dock3
    32    33     1
SMALL
USER_CHARGES


@<TRIPOS>ATOM
      1 C1          -4.2995 -11.0936   9.9016 C.3            1 <1>                0.0000
      2 C2          -2.8262 -10.8863  10.1416 C.ar           1 <1>                0.0000
      3 C3          -2.3575 -10.5045  11.3914 C.ar           1 <1>                0.0000
      4 C4          -1.0017 -10.3234  11.5789 C.ar           1 <1>                0.0000
      5 N5          -0.1509 -10.5079  10.5874 N.ar           1 <1>                0.0000
      6 C6          -0.5586 -10.8720   9.3813 C.ar           1 <1>                0.0000
      7 N7           0.3726 -11.0553   8.3656 N.pl3          1 <1>                0.0000
      8 C8           0.7642 -12.4094   7.9665 C.3            1 <1>                0.0000
      9 C9           1.0204 -13.2551   9.2156 C.3            1 <1>                0.0000
     10 C10          1.4294 -14.6694   8.7989 C.3            1 <1>                0.0000
     11 C11          0.3065 -15.3031   7.9754 C.3            1 <1>                0.0000
     12 C12          0.0502 -14.4575   6.7263 C.3            1 <1>                0.0000
     13 C13         -0.3588 -13.0433   7.1431 C.3            1 <1>                0.0000
     14 C14         -1.9098 -11.0778   9.1230 C.ar           1 <1>                0.0000
     15 H15         -4.7502 -10.1555   9.5777 H              1 <1>                0.0000
     16 H16         -4.4388 -11.8495   9.1288 H              1 <1>                0.0000
     17 H17         -4.7748 -11.4256  10.8245 H              1 <1>                0.0000
     18 H18         -3.0465 -10.3505  12.2088 H              1 <1>                0.0000
     19 H19         -0.6327 -10.0264  12.5496 H              1 <1>                0.0000
     20 H20          1.6730 -12.3629   7.3666 H              1 <1>                0.0000
     21 H21          1.8203 -12.8035   9.8023 H              1 <1>                0.0000
     22 H22          0.1115 -13.3016   9.8156 H              1 <1>                0.0000
     23 H23          2.3381 -14.6228   8.1989 H              1 <1>                0.0000
     24 H24          1.6118 -15.2718   9.6888 H              1 <1>                0.0000
     25 H25          0.5978 -16.3107   7.6786 H              1 <1>                0.0000
     26 H26         -0.6024 -15.3497   8.5754 H              1 <1>                0.0000
     27 H27          0.9591 -14.4110   6.1264 H              1 <1>                0.0000
     28 H28         -0.7498 -14.9090   6.1397 H              1 <1>                0.0000
     29 H29         -1.2676 -13.0898   7.7430 H              1 <1>                0.0000
     30 H30         -0.5413 -12.4408   6.2532 H              1 <1>                0.0000
     31 H31         -2.2398 -11.3752   8.1387 H              1 <1>                0.0000
     32 H32          0.7631 -10.2866   7.9212 H              1 <1>                0.0000
@<TRIPOS>BOND
    1    1    2 1     
    2    1   15 1     
    3    1   16 1     
    4    1   17 1     
    5    2    3 ar    
    6    2   14 ar    
    7    3    4 ar    
    8    3   18 1     
    9    4    5 ar    
   10    4   19 1     
   11    5    6 ar    
   12    6    7 1     
   13    6   14 ar    
   14    7    8 1     
   15    7   32 1     
   16    8    9 1     
   17    8   13 1     
   18    8   20 1     
   19    9   10 1     
   20    9   21 1     
   21    9   22 1     
   22   10   11 1     
   23   10   23 1     
   24   10   24 1     
   25   11   12 1     
   26   11   25 1     
   27   11   26 1     
   28   12   13 1     
   29   12   27 1     
   30   12   28 1     
   31   13   29 1     
   32   13   30 1     
   33   14   31 1     
@<TRIPOS>SUBSTRUCTURE
      1 ****           1
@<TRIPOS>SET
DONOR_HYDROGENS      STATIC     ATOMS    <user>   **** ""
1 32
ATOM$RED        STATIC     ATOMS    COLORGROUP SYSTEM
1 32
@<TRIPOS>COMMENT
> <Gold.Version>
2022.2.0

> <Gold.Id.Protein>
3pbl|protein|mol2

> <Gold.Protein.RotatedTorsions>
[ 1303 1298 1297 1294 ] final  -55.79 input  179.99 | X-H torsion
[ 2461 2456 2455 2452 ] final   25.40 input   30.03 | X-H torsion
[ 2515 2510 2509 2506 ] final  115.87 input  -89.99 | X-H torsion
[ 3721 3712 3711 3710 ] final -104.74 input -179.91 | X-H torsion
[ 3841 3832 3831 3830 ] final  -70.95 input -179.91 | X-H torsion
[ 3767 3762 3761 3758 ] final   33.89 input  -89.99 | X-H torsion
[ 2472 2467 2466 2463 ] final  -46.11 input  -89.97 | X-H torsion

> <Gold.Protein.ActiveResidues>
 VAL82   VAL86   LEU89   PHE106  VAL107  ASP110  VAL111  MET112  CYS114  THR115 
 CYS181  SER182  ILE183  PHE188  VAL189  ILE190  SER192  SER193  SER196  TRP342 
 PHE345  PHE346  HIS349  VAL350  TYR365  THR369  GLY372  TYR373 

> <Gold.Protein.RotatedAtoms>
    3.4644   -9.0366    3.7773 H   0  0  0  0  0  0  0  0  0  0  0  0  # atno 1303 bound_to 1298
    1.4435   -7.9167    7.0998 H   0  0  0  0  0  0  0  0  0  0  0  0  # atno 2461 bound_to 2456
   -3.6542   -5.1075    8.7594 H   0  0  0  0  0  0  0  0  0  0  0  0  # atno 2472 bound_to 2467
    2.0353   -8.1011    6.0478 H   0  0  0  0  0  0  0  0  0  0  0  0  # atno 2515 bound_to 2510
   -3.1271  -16.7884   14.5705 H   0  0  0  0  0  0  0  0  0  0  0  0  # atno 3721 bound_to 3712
   -4.9311  -23.0940   10.0696 H   0  0  0  0  0  0  0  0  0  0  0  0  # atno 3767 bound_to 3762
    1.6800  -19.7222    8.9091 H   0  0  0  0  0  0  0  0  0  0  0  0  # atno 3841 bound_to 3832
    4.8318   -8.8214    4.6434 LP  0  0  0  0  0  0  0  0  0  0  0  0  # atno 4297 bound_to 1298
    4.0662  -10.2635    4.6710 LP  0  0  0  0  0  0  0  0  0  0  0  0  # atno 4298 bound_to 1298
    0.3732   -8.9560    7.7643 LP  0  0  0  0  0  0  0  0  0  0  0  0  # atno 4299 bound_to 2456
    1.9212   -8.9352    8.2838 LP  0  0  0  0  0  0  0  0  0  0  0  0  # atno 4300 bound_to 2456
    2.5686   -7.6739    4.5649 LP  0  0  0  0  0  0  0  0  0  0  0  0  # atno 4301 bound_to 2510
    2.6931   -9.2243    5.0622 LP  0  0  0  0  0  0  0  0  0  0  0  0  # atno 4302 bound_to 2510
   -3.3103  -17.1369   13.0139 LP  0  0  0  0  0  0  0  0  0  0  0  0  # atno 4306 bound_to 3712
   -2.6070  -18.2070   14.0273 LP  0  0  0  0  0  0  0  0  0  0  0  0  # atno 4307 bound_to 3712
    3.0362  -20.3158    8.2891 LP  0  0  0  0  0  0  0  0  0  0  0  0  # atno 4314 bound_to 3832
    2.2524  -21.1074    9.4832 LP  0  0  0  0  0  0  0  0  0  0  0  0  # atno 4315 bound_to 3832
   -5.2656  -21.9285   11.1635 LP  0  0  0  0  0  0  0  0  0  0  0  0  # atno 4318 bound_to 3762
   -3.9307  -22.8527   11.3376 LP  0  0  0  0  0  0  0  0  0  0  0  0  # atno 4319 bound_to 3762
   -5.1970   -5.4302    9.1860 LP  0  0  0  0  0  0  0  0  0  0  0  0  # atno 4320 bound_to 2467
   -4.8655   -4.8559    7.6937 LP  0  0  0  0  0  0  0  0  0  0  0  0  # atno 4321 bound_to 2467

> <Gold.Score>
     Score     S(PLP)   S(hbond)     S(cho)   S(metal)  DE(clash)   DE(tors)     intcor
     53.53     -52.40       0.98       0.00       0.00       0.00       0.90       0.00

> <Gold.PLP.Fitness>
53.5341

> <Gold.PLP.PLP>
-52.4042

> <Gold.PLP.part.hbond>
-1.0000

> <Gold.PLP.part.metal>
0.0000

> <Gold.PLP.part.buried>
-4.2476

> <Gold.PLP.part.nonpolar>
-48.0516

> <Gold.PLP.part.repulsive>
0.0126

> <Gold.PLP.ligand.clash>
0.0000

> <Gold.PLP.ligand.torsion>
0.8991

> <Gold.PLP.Chemscore.Hbond>
0.9760

> <Gold.PLP.Chemscore.CHOScore>
0.0000

> <Gold.PLP.Chemscore.Metal>
0.0000

> <Gold.Chemscore.Hbonds>
donor molecule, donor type, donor heavy atom, donor atom, acceptor molecule, acceptor atom, score
      L1  H     7    32       P1  2456  0.98

> <Gold.PLP.Chemscore.Internal.Correction>
0.0000

