#       Name:                EN300-02904_i001
#       Creating user name   fsindt
#       Creation time:       Tue Feb 28 08:10:32 2023


#       File generated by GOLD software.
#

@<TRIPOS>MOLECULE
EN300-02904_i001|amine_7|mol2|4351|dock11
    32    33     1
SMALL
USER_CHARGES


@<TRIPOS>ATOM
      1 C1          -1.7272 -11.4233  11.5632 C.3            1 <1>                0.0000
      2 C2          -0.9804 -12.3139  10.6039 C.ar           1 <1>                0.0000
      3 C3          -0.8561 -11.9685   9.2649 C.ar           1 <1>                0.0000
      4 C4          -0.1651 -12.8058   8.4119 C.ar           1 <1>                0.0000
      5 N5           0.3752 -13.9256   8.8534 N.ar           1 <1>                0.0000
      6 C6           0.2785 -14.2897  10.1229 C.ar           1 <1>                0.0000
      7 N7           0.8632 -15.4781  10.5451 N.pl3          1 <1>                0.0000
      8 C8           0.6880 -15.9299  11.9276 C.3            1 <1>                0.0000
      9 C9           0.0432 -17.3174  11.9329 C.3            1 <1>                0.0000
     10 C10         -0.1398 -17.7893  13.3768 C.3            1 <1>                0.0000
     11 C11          1.2237 -17.8579  14.0675 C.3            1 <1>                0.0000
     12 C12          1.8685 -16.4704  14.0623 C.3            1 <1>                0.0000
     13 C13          2.0515 -15.9986  12.6184 C.3            1 <1>                0.0000
     14 C14         -0.3984 -13.4912  11.0388 C.ar           1 <1>                0.0000
     15 H15         -2.7781 -11.7119  11.5837 H              1 <1>                0.0000
     16 H16         -1.3022 -11.5274  12.5615 H              1 <1>                0.0000
     17 H17         -1.6415 -10.3864  11.2382 H              1 <1>                0.0000
     18 H18         -1.2956 -11.0542   8.8943 H              1 <1>                0.0000
     19 H19         -0.0660 -12.5409   7.3695 H              1 <1>                0.0000
     20 H20          0.0457 -15.2288  12.4604 H              1 <1>                0.0000
     21 H21         -0.9281 -17.2685  11.4408 H              1 <1>                0.0000
     22 H22          0.6855 -18.0186  11.4001 H              1 <1>                0.0000
     23 H23         -0.7820 -17.0881  13.9095 H              1 <1>                0.0000
     24 H24         -0.5991 -18.7778  13.3805 H              1 <1>                0.0000
     25 H25          1.0934 -18.1942  15.0961 H              1 <1>                0.0000
     26 H26          1.8660 -18.5591  13.5348 H              1 <1>                0.0000
     27 H27          1.2262 -15.7693  14.5951 H              1 <1>                0.0000
     28 H28          2.8399 -16.5193  14.5543 H              1 <1>                0.0000
     29 H29          2.6939 -16.6997  12.0856 H              1 <1>                0.0000
     30 H30          2.5109 -15.0101  12.6147 H              1 <1>                0.0000
     31 H31         -0.4755 -13.7901  12.0737 H              1 <1>                0.0000
     32 H32          1.3871 -16.0081   9.9243 H              1 <1>                0.0000
@<TRIPOS>BOND
    1    1    2 1     
    2    1   15 1     
    3    1   16 1     
    4    1   17 1     
    5    2    3 ar    
    6    2   14 ar    
    7    3    4 ar    
    8    3   18 1     
    9    4    5 ar    
   10    4   19 1     
   11    5    6 ar    
   12    6    7 1     
   13    6   14 ar    
   14    7    8 1     
   15    7   32 1     
   16    8    9 1     
   17    8   13 1     
   18    8   20 1     
   19    9   10 1     
   20    9   21 1     
   21    9   22 1     
   22   10   11 1     
   23   10   23 1     
   24   10   24 1     
   25   11   12 1     
   26   11   25 1     
   27   11   26 1     
   28   12   13 1     
   29   12   27 1     
   30   12   28 1     
   31   13   29 1     
   32   13   30 1     
   33   14   31 1     
@<TRIPOS>SUBSTRUCTURE
      1 ****           1
@<TRIPOS>SET
DONOR_HYDROGENS      STATIC     ATOMS    <user>   **** ""
1 32
ATOM$RED        STATIC     ATOMS    COLORGROUP SYSTEM
1 32
@<TRIPOS>COMMENT
> <Gold.Version>
2022.2.0

> <Gold.Id.Protein>
3pbl|protein|mol2

> <Gold.Protein.RotatedTorsions>
[ 1303 1298 1297 1294 ] final -133.05 input  179.99 | X-H torsion
[ 2461 2456 2455 2452 ] final -168.67 input   30.03 | X-H torsion
[ 2515 2510 2509 2506 ] final   77.27 input  -89.99 | X-H torsion
[ 3721 3712 3711 3710 ] final  -25.02 input -179.91 | X-H torsion
[ 3841 3832 3831 3830 ] final  -25.75 input -179.91 | X-H torsion
[ 3767 3762 3761 3758 ] final   75.67 input  -89.99 | X-H torsion
[ 2472 2467 2466 2463 ] final  -52.84 input  -89.97 | X-H torsion

> <Gold.Protein.ActiveResidues>
 VAL82   VAL86   LEU89   PHE106  VAL107  ASP110  VAL111  MET112  CYS114  THR115 
 CYS181  SER182  ILE183  PHE188  VAL189  ILE190  SER192  SER193  SER196  TRP342 
 PHE345  PHE346  HIS349  VAL350  TYR365  THR369  GLY372  TYR373 

> <Gold.Protein.RotatedAtoms>
    4.4069   -8.4874    4.2192 H   0  0  0  0  0  0  0  0  0  0  0  0  # atno 1303 bound_to 1298
    1.2716   -9.2652    8.3868 H   0  0  0  0  0  0  0  0  0  0  0  0  # atno 2461 bound_to 2456
   -3.6830   -5.1465    8.8590 H   0  0  0  0  0  0  0  0  0  0  0  0  # atno 2472 bound_to 2467
    2.0772   -7.5935    5.6890 H   0  0  0  0  0  0  0  0  0  0  0  0  # atno 2515 bound_to 2510
   -2.5771  -17.7525   14.5441 H   0  0  0  0  0  0  0  0  0  0  0  0  # atno 3721 bound_to 3712
   -4.3609  -23.3302   10.3368 H   0  0  0  0  0  0  0  0  0  0  0  0  # atno 3767 bound_to 3762
    1.5823  -20.1812    9.3806 H   0  0  0  0  0  0  0  0  0  0  0  0  # atno 3841 bound_to 3832
    4.6164   -9.9430    4.9289 LP  0  0  0  0  0  0  0  0  0  0  0  0  # atno 4297 bound_to 1298
    3.3388   -9.6913    3.9435 LP  0  0  0  0  0  0  0  0  0  0  0  0  # atno 4298 bound_to 1298
    2.0255   -8.1171    7.5030 LP  0  0  0  0  0  0  0  0  0  0  0  0  # atno 4299 bound_to 2456
    0.4407   -8.4261    7.2585 LP  0  0  0  0  0  0  0  0  0  0  0  0  # atno 4300 bound_to 2456
    2.7758   -8.2225    4.3541 LP  0  0  0  0  0  0  0  0  0  0  0  0  # atno 4301 bound_to 2510
    2.4439   -9.1835    5.6319 LP  0  0  0  0  0  0  0  0  0  0  0  0  # atno 4302 bound_to 2510
   -3.5456  -16.5620   14.0723 LP  0  0  0  0  0  0  0  0  0  0  0  0  # atno 4306 bound_to 3712
   -3.0068  -17.6688   12.9993 LP  0  0  0  0  0  0  0  0  0  0  0  0  # atno 4307 bound_to 3712
    2.5304  -19.8020    8.1423 LP  0  0  0  0  0  0  0  0  0  0  0  0  # atno 4314 bound_to 3832
    2.8712  -21.0909    9.0853 LP  0  0  0  0  0  0  0  0  0  0  0  0  # atno 4315 bound_to 3832
   -5.5091  -22.1987   10.5979 LP  0  0  0  0  0  0  0  0  0  0  0  0  # atno 4318 bound_to 3762
   -4.2572  -22.3463   11.6361 LP  0  0  0  0  0  0  0  0  0  0  0  0  # atno 4319 bound_to 3762
   -5.2747   -5.4111    9.1095 LP  0  0  0  0  0  0  0  0  0  0  0  0  # atno 4320 bound_to 2467
   -4.7591   -4.8359    7.6708 LP  0  0  0  0  0  0  0  0  0  0  0  0  # atno 4321 bound_to 2467

> <Gold.Score>
     Score     S(PLP)   S(hbond)     S(cho)   S(metal)  DE(clash)   DE(tors)     intcor
     44.27     -41.28       1.00       0.00       0.00       0.00       0.01       0.00

> <Gold.PLP.Fitness>
44.2652

> <Gold.PLP.PLP>
-41.2807

> <Gold.PLP.part.hbond>
-1.0000

> <Gold.PLP.part.metal>
0.0000

> <Gold.PLP.part.buried>
-3.0753

> <Gold.PLP.part.nonpolar>
-37.6901

> <Gold.PLP.part.repulsive>
0.0351

> <Gold.PLP.ligand.clash>
0.0000

> <Gold.PLP.ligand.torsion>
0.0078

> <Gold.PLP.Chemscore.Hbond>
1.0000

> <Gold.PLP.Chemscore.CHOScore>
0.0000

> <Gold.PLP.Chemscore.Metal>
0.0000

> <Gold.Chemscore.Hbonds>
donor molecule, donor type, donor heavy atom, donor atom, acceptor molecule, acceptor atom, score
      L1  H     7    32       P1  1227  1.00

> <Gold.PLP.Chemscore.Internal.Correction>
0.0000

