#       Name:                EN300-02904_i001
#       Creating user name   fsindt
#       Creation time:       Tue Feb 28 08:10:27 2023


#       File generated by GOLD software.
#

@<TRIPOS>MOLECULE
EN300-02904_i001|amine_7|mol2|4351|dock1
    32    33     1
SMALL
USER_CHARGES


@<TRIPOS>ATOM
      1 C1           1.3589 -12.5544   6.5962 C.3            1 <1>                0.0000
      2 C2           0.8315 -12.9043   7.9639 C.ar           1 <1>                0.0000
      3 C3          -0.1669 -12.1425   8.5559 C.ar           1 <1>                0.0000
      4 C4          -0.6288 -12.4898   9.8098 C.ar           1 <1>                0.0000
      5 N5          -0.1334 -13.5326  10.4486 N.ar           1 <1>                0.0000
      6 C6           0.8193 -14.2837   9.9177 C.ar           1 <1>                0.0000
      7 N7           1.3123 -15.3734  10.6261 N.pl3          1 <1>                0.0000
      8 C8           1.1754 -15.4220  12.0839 C.3            1 <1>                0.0000
      9 C9          -0.2549 -15.8247  12.4486 C.3            1 <1>                0.0000
     10 C10         -0.3980 -15.8754  13.9711 C.3            1 <1>                0.0000
     11 C11          0.5822 -16.9024  14.5415 C.3            1 <1>                0.0000
     12 C12          2.0125 -16.4997  14.1768 C.3            1 <1>                0.0000
     13 C13          2.1555 -16.4490  12.6543 C.3            1 <1>                0.0000
     14 C14          1.3273 -13.9951   8.6555 C.ar           1 <1>                0.0000
     15 H15          2.1998 -11.8682   6.6958 H              1 <1>                0.0000
     16 H16          1.6886 -13.4622   6.0909 H              1 <1>                0.0000
     17 H17          0.5698 -12.0800   6.0129 H              1 <1>                0.0000
     18 H18         -0.5779 -11.2868   8.0409 H              1 <1>                0.0000
     19 H19         -1.4054 -11.9000  10.2740 H              1 <1>                0.0000
     20 H20          1.3940 -14.4395  12.5024 H              1 <1>                0.0000
     21 H21         -0.9532 -15.0931  12.0422 H              1 <1>                0.0000
     22 H22         -0.4736 -16.8072  12.0302 H              1 <1>                0.0000
     23 H23         -0.1793 -14.8930  14.3895 H              1 <1>                0.0000
     24 H24         -1.4169 -16.1624  14.2309 H              1 <1>                0.0000
     25 H25          0.4802 -16.9386  15.6261 H              1 <1>                0.0000
     26 H26          0.3635 -17.8849  14.1231 H              1 <1>                0.0000
     27 H27          2.2311 -15.5173  14.5952 H              1 <1>                0.0000
     28 H28          2.7108 -17.2314  14.5831 H              1 <1>                0.0000
     29 H29          1.9369 -17.4314  12.2359 H              1 <1>                0.0000
     30 H30          3.1745 -16.1621  12.3945 H              1 <1>                0.0000
     31 H31          2.1040 -14.6095   8.2244 H              1 <1>                0.0000
     32 H32          1.7470 -16.1015  10.1552 H              1 <1>                0.0000
@<TRIPOS>BOND
    1    1    2 1     
    2    1   15 1     
    3    1   16 1     
    4    1   17 1     
    5    2    3 ar    
    6    2   14 ar    
    7    3    4 ar    
    8    3   18 1     
    9    4    5 ar    
   10    4   19 1     
   11    5    6 ar    
   12    6    7 1     
   13    6   14 ar    
   14    7    8 1     
   15    7   32 1     
   16    8    9 1     
   17    8   13 1     
   18    8   20 1     
   19    9   10 1     
   20    9   21 1     
   21    9   22 1     
   22   10   11 1     
   23   10   23 1     
   24   10   24 1     
   25   11   12 1     
   26   11   25 1     
   27   11   26 1     
   28   12   13 1     
   29   12   27 1     
   30   12   28 1     
   31   13   29 1     
   32   13   30 1     
   33   14   31 1     
@<TRIPOS>SUBSTRUCTURE
      1 ****           1
@<TRIPOS>SET
DONOR_HYDROGENS      STATIC     ATOMS    <user>   **** ""
1 32
ATOM$RED        STATIC     ATOMS    COLORGROUP SYSTEM
1 32
@<TRIPOS>COMMENT
> <Gold.Version>
2022.2.0

> <Gold.Id.Protein>
3pbl|protein|mol2

> <Gold.Protein.RotatedTorsions>
[ 1303 1298 1297 1294 ] final  158.05 input  179.99 | X-H torsion
[ 2461 2456 2455 2452 ] final  -23.28 input   30.03 | X-H torsion
[ 2515 2510 2509 2506 ] final   59.03 input  -89.99 | X-H torsion
[ 3721 3712 3711 3710 ] final -100.90 input -179.91 | X-H torsion
[ 3841 3832 3831 3830 ] final  130.34 input -179.91 | X-H torsion
[ 3767 3762 3761 3758 ] final  -12.28 input  -89.99 | X-H torsion
[ 2472 2467 2466 2463 ] final  -50.16 input  -89.97 | X-H torsion

> <Gold.Protein.ActiveResidues>
 VAL82   VAL86   LEU89   PHE106  VAL107  ASP110  VAL111  MET112  CYS114  THR115 
 CYS181  SER182  ILE183  PHE188  VAL189  ILE190  SER192  SER193  SER196  TRP342 
 PHE345  PHE346  HIS349  VAL350  TYR365  THR369  GLY372  TYR373 

> <Gold.Protein.RotatedAtoms>
    4.9116   -9.1902    4.8427 H   0  0  0  0  0  0  0  0  0  0  0  0  # atno 1303 bound_to 1298
    0.7049   -8.1588    7.0838 H   0  0  0  0  0  0  0  0  0  0  0  0  # atno 2461 bound_to 2456
   -3.6700   -5.1310    8.8198 H   0  0  0  0  0  0  0  0  0  0  0  0  # atno 2472 bound_to 2467
    2.1550   -7.4571    5.4349 H   0  0  0  0  0  0  0  0  0  0  0  0  # atno 2515 bound_to 2510
   -3.1017  -16.8275   14.6049 H   0  0  0  0  0  0  0  0  0  0  0  0  # atno 3721 bound_to 3712
   -5.4188  -22.5648   10.2390 H   0  0  0  0  0  0  0  0  0  0  0  0  # atno 3767 bound_to 3762
    3.1198  -20.6250    8.8259 H   0  0  0  0  0  0  0  0  0  0  0  0  # atno 3841 bound_to 3832
    3.7236  -10.2271    4.4188 LP  0  0  0  0  0  0  0  0  0  0  0  0  # atno 4297 bound_to 1298
    3.7266   -8.7041    3.8299 LP  0  0  0  0  0  0  0  0  0  0  0  0  # atno 4298 bound_to 1298
    0.8768   -9.2775    8.2613 LP  0  0  0  0  0  0  0  0  0  0  0  0  # atno 4299 bound_to 2456
    2.1558   -8.3717    7.8028 LP  0  0  0  0  0  0  0  0  0  0  0  0  # atno 4300 bound_to 2456
    2.8248   -8.5153    4.3875 LP  0  0  0  0  0  0  0  0  0  0  0  0  # atno 4301 bound_to 2510
    2.3171   -9.0271    5.8527 LP  0  0  0  0  0  0  0  0  0  0  0  0  # atno 4302 bound_to 2510
   -3.3383  -17.0843   13.0378 LP  0  0  0  0  0  0  0  0  0  0  0  0  # atno 4306 bound_to 3712
   -2.6085  -18.2143   13.9636 LP  0  0  0  0  0  0  0  0  0  0  0  0  # atno 4307 bound_to 3712
    1.6761  -20.7460    9.5165 LP  0  0  0  0  0  0  0  0  0  0  0  0  # atno 4314 bound_to 3832
    1.9494  -19.6343    8.3519 LP  0  0  0  0  0  0  0  0  0  0  0  0  # atno 4315 bound_to 3832
   -4.6779  -22.0420   11.5972 LP  0  0  0  0  0  0  0  0  0  0  0  0  # atno 4318 bound_to 3762
   -4.0309  -23.2683   10.7346 LP  0  0  0  0  0  0  0  0  0  0  0  0  # atno 4319 bound_to 3762
   -5.2449   -5.4192    9.1409 LP  0  0  0  0  0  0  0  0  0  0  0  0  # atno 4320 bound_to 2467
   -4.8018   -4.8434    7.6785 LP  0  0  0  0  0  0  0  0  0  0  0  0  # atno 4321 bound_to 2467

> <Gold.Score>
     Score     S(PLP)   S(hbond)     S(cho)   S(metal)  DE(clash)   DE(tors)     intcor
     50.68     -48.39       1.00       0.00       0.00       0.00       0.35       0.00

> <Gold.PLP.Fitness>
50.6816

> <Gold.PLP.PLP>
-48.3873

> <Gold.PLP.part.hbond>
-1.0000

> <Gold.PLP.part.metal>
0.0000

> <Gold.PLP.part.buried>
-4.6713

> <Gold.PLP.part.nonpolar>
-42.8794

> <Gold.PLP.part.repulsive>
0.0034

> <Gold.PLP.ligand.clash>
0.0000

> <Gold.PLP.ligand.torsion>
0.3532

> <Gold.PLP.Chemscore.Hbond>
1.0000

> <Gold.PLP.Chemscore.CHOScore>
0.0000

> <Gold.PLP.Chemscore.Metal>
0.0000

> <Gold.Chemscore.Hbonds>
donor molecule, donor type, donor heavy atom, donor atom, acceptor molecule, acceptor atom, score
      L1  H     7    32       P1  1227  1.00

> <Gold.PLP.Chemscore.Internal.Correction>
0.0008

