#       Name:                EN300-02904_i001
#       Creating user name   fsindt
#       Creation time:       Tue Feb 28 08:10:29 2023


#       File generated by GOLD software.
#

@<TRIPOS>MOLECULE
EN300-02904_i001|amine_7|mol2|4351|dock6
    32    33     1
SMALL
USER_CHARGES


@<TRIPOS>ATOM
      1 C1           0.4791 -11.7919   8.0819 C.3            1 <1>                0.0000
      2 C2           0.1259 -12.5594   9.3298 C.ar           1 <1>                0.0000
      3 C3          -0.9593 -12.1846  10.1105 C.ar           1 <1>                0.0000
      4 C4          -1.2567 -12.9090  11.2475 C.ar           1 <1>                0.0000
      5 N5          -0.5237 -13.9484  11.5987 N.ar           1 <1>                0.0000
      6 C6           0.5189 -14.3372  10.8808 C.ar           1 <1>                0.0000
      7 N7           1.2635 -15.4381  11.2878 N.pl3          1 <1>                0.0000
      8 C8           1.3416 -15.7846  12.7092 C.3            1 <1>                0.0000
      9 C9          -0.0481 -16.1760  13.2157 C.3            1 <1>                0.0000
     10 C10          0.0333 -16.5378  14.7001 C.3            1 <1>                0.0000
     11 C11          0.9940 -17.7139  14.8864 C.3            1 <1>                0.0000
     12 C12          2.3837 -17.3225  14.3799 C.3            1 <1>                0.0000
     13 C13          2.3022 -16.9607  12.8955 C.3            1 <1>                0.0000
     14 C14          0.8724 -13.6569   9.7202 C.ar           1 <1>                0.0000
     15 H15          1.1740 -10.9905   8.3328 H              1 <1>                0.0000
     16 H16          0.9447 -12.4643   7.3614 H              1 <1>                0.0000
     17 H17         -0.4260 -11.3658   7.6491 H              1 <1>                0.0000
     18 H18         -1.5645 -11.3348   9.8313 H              1 <1>                0.0000
     19 H19         -2.1000 -12.6209  11.8577 H              1 <1>                0.0000
     20 H20          1.7051 -14.9256  13.2732 H              1 <1>                0.0000
     21 H21         -0.7325 -15.3382  13.0829 H              1 <1>                0.0000
     22 H22         -0.4117 -17.0351  12.6517 H              1 <1>                0.0000
     23 H23          0.3969 -15.6789  15.2640 H              1 <1>                0.0000
     24 H24         -0.9567 -16.8168  15.0609 H              1 <1>                0.0000
     25 H25          1.0520 -17.9717  15.9438 H              1 <1>                0.0000
     26 H26          0.6304 -18.5730  14.3224 H              1 <1>                0.0000
     27 H27          2.7472 -16.4635  14.9438 H              1 <1>                0.0000
     28 H28          3.0681 -18.1603  14.5126 H              1 <1>                0.0000
     29 H29          1.9387 -17.8197  12.3315 H              1 <1>                0.0000
     30 H30          3.2923 -16.6818  12.5347 H              1 <1>                0.0000
     31 H31          1.7228 -13.9762   9.1361 H              1 <1>                0.0000
     32 H32          1.7315 -15.9769  10.6309 H              1 <1>                0.0000
@<TRIPOS>BOND
    1    1    2 1     
    2    1   15 1     
    3    1   16 1     
    4    1   17 1     
    5    2    3 ar    
    6    2   14 ar    
    7    3    4 ar    
    8    3   18 1     
    9    4    5 ar    
   10    4   19 1     
   11    5    6 ar    
   12    6    7 1     
   13    6   14 ar    
   14    7    8 1     
   15    7   32 1     
   16    8    9 1     
   17    8   13 1     
   18    8   20 1     
   19    9   10 1     
   20    9   21 1     
   21    9   22 1     
   22   10   11 1     
   23   10   23 1     
   24   10   24 1     
   25   11   12 1     
   26   11   25 1     
   27   11   26 1     
   28   12   13 1     
   29   12   27 1     
   30   12   28 1     
   31   13   29 1     
   32   13   30 1     
   33   14   31 1     
@<TRIPOS>SUBSTRUCTURE
      1 ****           1
@<TRIPOS>SET
DONOR_HYDROGENS      STATIC     ATOMS    <user>   **** ""
1 32
ATOM$RED        STATIC     ATOMS    COLORGROUP SYSTEM
1 32
@<TRIPOS>COMMENT
> <Gold.Version>
2022.2.0

> <Gold.Id.Protein>
3pbl|protein|mol2

> <Gold.Protein.RotatedTorsions>
[ 1303 1298 1297 1294 ] final  -62.29 input  179.99 | X-H torsion
[ 2461 2456 2455 2452 ] final  -48.84 input   30.03 | X-H torsion
[ 2515 2510 2509 2506 ] final  -15.93 input  -89.99 | X-H torsion
[ 3721 3712 3711 3710 ] final    9.72 input -179.91 | X-H torsion
[ 3841 3832 3831 3830 ] final   63.20 input -179.91 | X-H torsion
[ 3767 3762 3761 3758 ] final  -36.70 input  -89.99 | X-H torsion
[ 2472 2467 2466 2463 ] final -157.75 input  -89.97 | X-H torsion

> <Gold.Protein.ActiveResidues>
 VAL82   VAL86   LEU89   PHE106  VAL107  ASP110  VAL111  MET112  CYS114  THR115 
 CYS181  SER182  ILE183  PHE188  VAL189  ILE190  SER192  SER193  SER196  TRP342 
 PHE345  PHE346  HIS349  VAL350  TYR365  THR369  GLY372  TYR373 

> <Gold.Protein.RotatedAtoms>
    3.5187   -8.9444    3.7793 H   0  0  0  0  0  0  0  0  0  0  0  0  # atno 1303 bound_to 1298
    0.4392   -8.4279    7.2599 H   0  0  0  0  0  0  0  0  0  0  0  0  # atno 2461 bound_to 2456
   -5.0887   -5.4487    9.2684 H   0  0  0  0  0  0  0  0  0  0  0  0  # atno 2472 bound_to 2467
    2.6434   -7.8206    4.4628 H   0  0  0  0  0  0  0  0  0  0  0  0  # atno 2515 bound_to 2510
   -2.4726  -18.0032   14.1039 H   0  0  0  0  0  0  0  0  0  0  0  0  # atno 3721 bound_to 3712
   -5.5098  -22.2773   10.5003 H   0  0  0  0  0  0  0  0  0  0  0  0  # atno 3767 bound_to 3762
    2.5139  -20.9499    9.4920 H   0  0  0  0  0  0  0  0  0  0  0  0  # atno 3841 bound_to 3832
    4.8666   -8.9052    4.7001 LP  0  0  0  0  0  0  0  0  0  0  0  0  # atno 4297 bound_to 1298
    3.9772  -10.2719    4.6124 LP  0  0  0  0  0  0  0  0  0  0  0  0  # atno 4298 bound_to 1298
    1.2742   -9.2645    8.3870 LP  0  0  0  0  0  0  0  0  0  0  0  0  # atno 4299 bound_to 2456
    2.0241   -8.1157    7.5012 LP  0  0  0  0  0  0  0  0  0  0  0  0  # atno 4300 bound_to 2456
    2.6245   -9.2559    5.2408 LP  0  0  0  0  0  0  0  0  0  0  0  0  # atno 4301 bound_to 2510
    2.0287   -7.9228    5.9719 LP  0  0  0  0  0  0  0  0  0  0  0  0  # atno 4302 bound_to 2510
   -3.3820  -16.7686   14.5798 LP  0  0  0  0  0  0  0  0  0  0  0  0  # atno 4306 bound_to 3712
   -3.2910  -17.1727   13.0002 LP  0  0  0  0  0  0  0  0  0  0  0  0  # atno 4307 bound_to 3712
    1.4382  -19.9084    8.9139 LP  0  0  0  0  0  0  0  0  0  0  0  0  # atno 4314 bound_to 3832
    2.8873  -20.0965    8.1850 LP  0  0  0  0  0  0  0  0  0  0  0  0  # atno 4315 bound_to 3832
   -4.3494  -22.2619   11.6492 LP  0  0  0  0  0  0  0  0  0  0  0  0  # atno 4318 bound_to 3762
   -4.2685  -23.3357   10.4215 LP  0  0  0  0  0  0  0  0  0  0  0  0  # atno 4319 bound_to 3762
   -4.9920   -4.8860    7.7386 LP  0  0  0  0  0  0  0  0  0  0  0  0  # atno 4320 bound_to 2467
   -3.6363   -5.0589    8.6323 LP  0  0  0  0  0  0  0  0  0  0  0  0  # atno 4321 bound_to 2467

> <Gold.Score>
     Score     S(PLP)   S(hbond)     S(cho)   S(metal)  DE(clash)   DE(tors)     intcor
     46.22     -43.87       0.91       0.00       0.00       0.00       0.19       0.00

> <Gold.PLP.Fitness>
46.2244

> <Gold.PLP.PLP>
-43.8658

> <Gold.PLP.part.hbond>
-1.0000

> <Gold.PLP.part.metal>
0.0000

> <Gold.PLP.part.buried>
-4.4418

> <Gold.PLP.part.nonpolar>
-40.2355

> <Gold.PLP.part.repulsive>
0.0521

> <Gold.PLP.ligand.clash>
0.0000

> <Gold.PLP.ligand.torsion>
0.1857

> <Gold.PLP.Chemscore.Hbond>
0.9100

> <Gold.PLP.Chemscore.CHOScore>
0.0000

> <Gold.PLP.Chemscore.Metal>
0.0000

> <Gold.Chemscore.Hbonds>
donor molecule, donor type, donor heavy atom, donor atom, acceptor molecule, acceptor atom, score
      L1  H     7    32       P1  1227  0.91

> <Gold.PLP.Chemscore.Internal.Correction>
0.0000

