#       Name:                EN300-02904_i001
#       Creating user name   fsindt
#       Creation time:       Tue Feb 28 08:10:33 2023


#       File generated by GOLD software.
#

@<TRIPOS>MOLECULE
EN300-02904_i001|amine_7|mol2|4351|dock14
    32    33     1
SMALL
USER_CHARGES


@<TRIPOS>ATOM
      1 C1          -0.6981 -11.2662   8.7021 C.3            1 <1>                0.0000
      2 C2          -0.1666 -12.5870   9.1963 C.ar           1 <1>                0.0000
      3 C3           0.6971 -13.3420   8.4143 C.ar           1 <1>                0.0000
      4 C4           1.1667 -14.5475   8.8962 C.ar           1 <1>                0.0000
      5 N5           0.8047 -14.9879  10.0861 N.ar           1 <1>                0.0000
      6 C6          -0.0171 -14.2973  10.8615 C.ar           1 <1>                0.0000
      7 N7          -0.3722 -14.7990  12.1083 N.pl3          1 <1>                0.0000
      8 C8           0.3315 -15.9605  12.6579 C.3            1 <1>                0.0000
      9 C9           1.8417 -15.7385  12.5525 C.3            1 <1>                0.0000
     10 C10          2.5767 -16.9514  13.1266 C.3            1 <1>                0.0000
     11 C11          2.1894 -17.1344  14.5953 C.3            1 <1>                0.0000
     12 C12          0.6792 -17.3563  14.7007 C.3            1 <1>                0.0000
     13 C13         -0.0558 -16.1434  14.1268 C.3            1 <1>                0.0000
     14 C14         -0.5239 -13.0718  10.4418 C.ar           1 <1>                0.0000
     15 H15         -1.6297 -11.4294   8.1604 H              1 <1>                0.0000
     16 H16         -0.8820 -10.6080   9.5513 H              1 <1>                0.0000
     17 H17          0.0330 -10.8062   8.0374 H              1 <1>                0.0000
     18 H18          0.9984 -12.9899   7.4387 H              1 <1>                0.0000
     19 H19          1.8388 -15.1380   8.2911 H              1 <1>                0.0000
     20 H20          0.0553 -16.8524  12.0955 H              1 <1>                0.0000
     21 H21          2.1176 -15.6082  11.5062 H              1 <1>                0.0000
     22 H22          2.1179 -14.8466  13.1150 H              1 <1>                0.0000
     23 H23          2.3004 -17.8433  12.5642 H              1 <1>                0.0000
     24 H24          3.6526 -16.7933  13.0516 H              1 <1>                0.0000
     25 H25          2.7130 -17.9984  15.0043 H              1 <1>                0.0000
     26 H26          2.4656 -16.2425  15.1578 H              1 <1>                0.0000
     27 H27          0.4030 -18.2483  14.1383 H              1 <1>                0.0000
     28 H28          0.4032 -17.4867  15.7471 H              1 <1>                0.0000
     29 H29          0.2204 -15.2515  14.6892 H              1 <1>                0.0000
     30 H30         -1.1317 -16.3016  14.2018 H              1 <1>                0.0000
     31 H31         -1.1936 -12.5102  11.0763 H              1 <1>                0.0000
     32 H32         -1.0860 -14.3803  12.6142 H              1 <1>                0.0000
@<TRIPOS>BOND
    1    1    2 1     
    2    1   15 1     
    3    1   16 1     
    4    1   17 1     
    5    2    3 ar    
    6    2   14 ar    
    7    3    4 ar    
    8    3   18 1     
    9    4    5 ar    
   10    4   19 1     
   11    5    6 ar    
   12    6    7 1     
   13    6   14 ar    
   14    7    8 1     
   15    7   32 1     
   16    8    9 1     
   17    8   13 1     
   18    8   20 1     
   19    9   10 1     
   20    9   21 1     
   21    9   22 1     
   22   10   11 1     
   23   10   23 1     
   24   10   24 1     
   25   11   12 1     
   26   11   25 1     
   27   11   26 1     
   28   12   13 1     
   29   12   27 1     
   30   12   28 1     
   31   13   29 1     
   32   13   30 1     
   33   14   31 1     
@<TRIPOS>SUBSTRUCTURE
      1 ****           1
@<TRIPOS>SET
DONOR_HYDROGENS      STATIC     ATOMS    <user>   **** ""
1 32
ATOM$RED        STATIC     ATOMS    COLORGROUP SYSTEM
1 32
@<TRIPOS>COMMENT
> <Gold.Version>
2022.2.0

> <Gold.Id.Protein>
3pbl|protein|mol2

> <Gold.Protein.RotatedTorsions>
[ 1303 1298 1297 1294 ] final  -30.10 input  179.99 | X-H torsion
[ 2461 2456 2455 2452 ] final   43.61 input   30.03 | X-H torsion
[ 2515 2510 2509 2506 ] final  141.40 input  -89.99 | X-H torsion
[ 3721 3712 3711 3710 ] final -133.43 input -179.91 | X-H torsion
[ 3841 3832 3831 3830 ] final   85.08 input -179.91 | X-H torsion
[ 3767 3762 3761 3758 ] final  143.74 input  -89.99 | X-H torsion
[ 2472 2467 2466 2463 ] final  166.37 input  -89.97 | X-H torsion

> <Gold.Protein.ActiveResidues>
 VAL82   VAL86   LEU89   PHE106  VAL107  ASP110  VAL111  MET112  CYS114  THR115 
 CYS181  SER182  ILE183  PHE188  VAL189  ILE190  SER192  SER193  SER196  TRP342 
 PHE345  PHE346  HIS349  VAL350  TYR365  THR369  GLY372  TYR373 

> <Gold.Protein.RotatedAtoms>
    3.3377   -9.4307    3.8422 H   0  0  0  0  0  0  0  0  0  0  0  0  # atno 1303 bound_to 1298
    1.7131   -7.9473    7.2245 H   0  0  0  0  0  0  0  0  0  0  0  0  # atno 2461 bound_to 2456
   -5.4495   -5.3300    8.8289 H   0  0  0  0  0  0  0  0  0  0  0  0  # atno 2472 bound_to 2467
    2.1050   -8.5094    6.0911 H   0  0  0  0  0  0  0  0  0  0  0  0  # atno 2515 bound_to 2510
   -3.2789  -16.5765   14.2294 H   0  0  0  0  0  0  0  0  0  0  0  0  # atno 3721 bound_to 3712
   -3.9083  -22.9673   11.2186 H   0  0  0  0  0  0  0  0  0  0  0  0  # atno 3767 bound_to 3762
    2.7882  -20.9380    9.3115 H   0  0  0  0  0  0  0  0  0  0  0  0  # atno 3841 bound_to 3832
    4.6110   -8.5689    4.3920 LP  0  0  0  0  0  0  0  0  0  0  0  0  # atno 4297 bound_to 1298
    4.4138  -10.1217    4.8575 LP  0  0  0  0  0  0  0  0  0  0  0  0  # atno 4298 bound_to 1298
    0.3307   -8.7546    7.5482 LP  0  0  0  0  0  0  0  0  0  0  0  0  # atno 4299 bound_to 2456
    1.6941   -9.1061    8.3753 LP  0  0  0  0  0  0  0  0  0  0  0  0  # atno 4300 bound_to 2456
    2.3915   -7.4587    4.8747 LP  0  0  0  0  0  0  0  0  0  0  0  0  # atno 4301 bound_to 2510
    2.8004   -9.0309    4.7090 LP  0  0  0  0  0  0  0  0  0  0  0  0  # atno 4302 bound_to 2510
   -3.0787  -17.5483   12.9671 LP  0  0  0  0  0  0  0  0  0  0  0  0  # atno 4306 bound_to 3712
   -2.6634  -18.0401   14.4679 LP  0  0  0  0  0  0  0  0  0  0  0  0  # atno 4307 bound_to 3712
    1.3905  -20.1617    9.1702 LP  0  0  0  0  0  0  0  0  0  0  0  0  # atno 4314 bound_to 3832
    2.6180  -19.8570    8.1373 LP  0  0  0  0  0  0  0  0  0  0  0  0  # atno 4315 bound_to 3832
   -5.0637  -22.9930   10.0648 LP  0  0  0  0  0  0  0  0  0  0  0  0  # atno 4318 bound_to 3762
   -5.1550  -21.9148   11.2878 LP  0  0  0  0  0  0  0  0  0  0  0  0  # atno 4319 bound_to 3762
   -4.4208   -4.8008    7.6765 LP  0  0  0  0  0  0  0  0  0  0  0  0  # atno 4320 bound_to 2467
   -3.8467   -5.2628    9.1337 LP  0  0  0  0  0  0  0  0  0  0  0  0  # atno 4321 bound_to 2467

> <Gold.Score>
     Score     S(PLP)   S(hbond)     S(cho)   S(metal)  DE(clash)   DE(tors)     intcor
     45.52     -45.10       0.00       0.23       0.00       0.00       0.13       0.00

> <Gold.PLP.Fitness>
45.5171

> <Gold.PLP.PLP>
-45.0964

> <Gold.PLP.part.hbond>
0.0000

> <Gold.PLP.part.metal>
0.0000

> <Gold.PLP.part.buried>
-4.9512

> <Gold.PLP.part.nonpolar>
-41.8871

> <Gold.PLP.part.repulsive>
0.1613

> <Gold.PLP.ligand.clash>
0.0000

> <Gold.PLP.ligand.torsion>
0.1318

> <Gold.PLP.Chemscore.Hbond>
0.0000

> <Gold.PLP.Chemscore.CHOScore>
0.2281

> <Gold.PLP.Chemscore.Metal>
0.0000

> <Gold.Chemscore.Hbonds>
donor molecule, donor type, donor heavy atom, donor atom, acceptor molecule, acceptor atom, score
      L1  C     4    19       P1  1227  0.23

> <Gold.PLP.Chemscore.Internal.Correction>
0.0000

