#       Name:                EN300-02904_i001
#       Creating user name   fsindt
#       Creation time:       Tue Feb 28 08:10:36 2023


#       File generated by GOLD software.
#

@<TRIPOS>MOLECULE
EN300-02904_i001|amine_7|mol2|4351|dock18
    32    33     1
SMALL
USER_CHARGES


@<TRIPOS>ATOM
      1 C1          -0.3254 -16.1511   8.1888 C.3            1 <1>                0.0000
      2 C2           0.0440 -14.6993   8.0249 C.ar           1 <1>                0.0000
      3 C3           0.9993 -14.3105   7.0955 C.ar           1 <1>                0.0000
      4 C4           1.3148 -12.9723   6.9695 C.ar           1 <1>                0.0000
      5 N5           0.7214 -12.0635   7.7196 N.ar           1 <1>                0.0000
      6 C6          -0.1945 -12.3943   8.6170 C.ar           1 <1>                0.0000
      7 N7          -0.7945 -11.4040   9.3861 N.pl3          1 <1>                0.0000
      8 C8          -2.2228 -11.1187   9.2284 C.3            1 <1>                0.0000
      9 C9          -3.0402 -12.2950   9.7663 C.3            1 <1>                0.0000
     10 C10         -4.5319 -11.9972   9.6015 C.3            1 <1>                0.0000
     11 C11         -4.8880 -10.7298  10.3811 C.3            1 <1>                0.0000
     12 C12         -4.0706  -9.5535   9.8432 C.3            1 <1>                0.0000
     13 C13         -2.5790  -9.8514  10.0080 C.3            1 <1>                0.0000
     14 C14         -0.5653 -13.7233   8.7932 C.ar           1 <1>                0.0000
     15 H15          0.3202 -16.6078   8.9389 H              1 <1>                0.0000
     16 H16         -1.3646 -16.2277   8.5087 H              1 <1>                0.0000
     17 H17         -0.1991 -16.6678   7.2374 H              1 <1>                0.0000
     18 H18          1.4908 -15.0473   6.4776 H              1 <1>                0.0000
     19 H19          2.0575 -12.6655   6.2477 H              1 <1>                0.0000
     20 H20         -2.4495 -10.9715   8.1724 H              1 <1>                0.0000
     21 H21         -2.7864 -13.1978   9.2109 H              1 <1>                0.0000
     22 H22         -2.8135 -12.4422  10.8223 H              1 <1>                0.0000
     23 H23         -4.7585 -11.8499   8.5456 H              1 <1>                0.0000
     24 H24         -5.1142 -12.8351   9.9848 H              1 <1>                0.0000
     25 H25         -5.9507 -10.5176  10.2639 H              1 <1>                0.0000
     26 H26         -4.6613 -10.8770  11.4371 H              1 <1>                0.0000
     27 H27         -4.2973  -9.4063   8.7873 H              1 <1>                0.0000
     28 H28         -4.3243  -8.6506  10.3987 H              1 <1>                0.0000
     29 H29         -2.3522  -9.9985  11.0640 H              1 <1>                0.0000
     30 H30         -1.9967  -9.0134   9.6248 H              1 <1>                0.0000
     31 H31         -1.3129 -13.9905   9.5254 H              1 <1>                0.0000
     32 H32         -0.2675 -10.9018  10.0272 H              1 <1>                0.0000
@<TRIPOS>BOND
    1    1    2 1     
    2    1   15 1     
    3    1   16 1     
    4    1   17 1     
    5    2    3 ar    
    6    2   14 ar    
    7    3    4 ar    
    8    3   18 1     
    9    4    5 ar    
   10    4   19 1     
   11    5    6 ar    
   12    6    7 1     
   13    6   14 ar    
   14    7    8 1     
   15    7   32 1     
   16    8    9 1     
   17    8   13 1     
   18    8   20 1     
   19    9   10 1     
   20    9   21 1     
   21    9   22 1     
   22   10   11 1     
   23   10   23 1     
   24   10   24 1     
   25   11   12 1     
   26   11   25 1     
   27   11   26 1     
   28   12   13 1     
   29   12   27 1     
   30   12   28 1     
   31   13   29 1     
   32   13   30 1     
   33   14   31 1     
@<TRIPOS>SUBSTRUCTURE
      1 ****           1
@<TRIPOS>SET
DONOR_HYDROGENS      STATIC     ATOMS    <user>   **** ""
1 32
ATOM$RED        STATIC     ATOMS    COLORGROUP SYSTEM
1 32
@<TRIPOS>COMMENT
> <Gold.Version>
2022.2.0

> <Gold.Id.Protein>
3pbl|protein|mol2

> <Gold.Protein.RotatedTorsions>
[ 1303 1298 1297 1294 ] final  -91.18 input  179.99 | X-H torsion
[ 2461 2456 2455 2452 ] final  111.40 input   30.03 | X-H torsion
[ 2515 2510 2509 2506 ] final  -79.00 input  -89.99 | X-H torsion
[ 3721 3712 3711 3710 ] final  101.18 input -179.91 | X-H torsion
[ 3841 3832 3831 3830 ] final -155.91 input -179.91 | X-H torsion
[ 3767 3762 3761 3758 ] final  -61.63 input  -89.99 | X-H torsion
[ 2472 2467 2466 2463 ] final -109.64 input  -89.97 | X-H torsion

> <Gold.Protein.ActiveResidues>
 VAL82   VAL86   LEU89   PHE106  VAL107  ASP110  VAL111  MET112  CYS114  THR115 
 CYS181  SER182  ILE183  PHE188  VAL189  ILE190  SER192  SER193  SER196  TRP342 
 PHE345  PHE346  HIS349  VAL350  TYR365  THR369  GLY372  TYR373 

> <Gold.Protein.RotatedAtoms>
    3.8416   -8.6167    3.8766 H   0  0  0  0  0  0  0  0  0  0  0  0  # atno 1303 bound_to 1298
    2.1515   -8.5428    7.9724 H   0  0  0  0  0  0  0  0  0  0  0  0  # atno 2461 bound_to 2456
   -4.3344   -5.4177    9.4125 H   0  0  0  0  0  0  0  0  0  0  0  0  # atno 2472 bound_to 2467
    2.8346   -8.7868    4.5037 H   0  0  0  0  0  0  0  0  0  0  0  0  # atno 2515 bound_to 2510
   -2.8671  -17.4780   13.0516 H   0  0  0  0  0  0  0  0  0  0  0  0  # atno 3721 bound_to 3712
   -5.4548  -22.0483   10.8324 H   0  0  0  0  0  0  0  0  0  0  0  0  # atno 3767 bound_to 3762
    2.7026  -19.8024    8.3478 H   0  0  0  0  0  0  0  0  0  0  0  0  # atno 3841 bound_to 3832
    4.9016   -9.3338    4.8908 LP  0  0  0  0  0  0  0  0  0  0  0  0  # atno 4297 bound_to 1298
    3.6191  -10.1711    4.3244 LP  0  0  0  0  0  0  0  0  0  0  0  0  # atno 4298 bound_to 1298
    0.9099   -8.0410    7.0375 LP  0  0  0  0  0  0  0  0  0  0  0  0  # atno 4299 bound_to 2456
    0.6766   -9.2244    8.1383 LP  0  0  0  0  0  0  0  0  0  0  0  0  # atno 4300 bound_to 2456
    2.2029   -8.8037    6.0092 LP  0  0  0  0  0  0  0  0  0  0  0  0  # atno 4301 bound_to 2510
    2.2591   -7.4084    5.1628 LP  0  0  0  0  0  0  0  0  0  0  0  0  # atno 4302 bound_to 2510
   -2.7007  -17.9585   14.5745 LP  0  0  0  0  0  0  0  0  0  0  0  0  # atno 4306 bound_to 3712
   -3.5168  -16.5892   14.2202 LP  0  0  0  0  0  0  0  0  0  0  0  0  # atno 4307 bound_to 3712
    2.7151  -21.1437    9.2292 LP  0  0  0  0  0  0  0  0  0  0  0  0  # atno 4314 bound_to 3832
    1.3924  -20.1868    9.1915 LP  0  0  0  0  0  0  0  0  0  0  0  0  # atno 4315 bound_to 3832
   -4.0807  -22.5532   11.5561 LP  0  0  0  0  0  0  0  0  0  0  0  0  # atno 4318 bound_to 3762
   -4.5921  -23.2733   10.1826 LP  0  0  0  0  0  0  0  0  0  0  0  0  # atno 4319 bound_to 3762
   -5.4768   -5.1347    8.2806 LP  0  0  0  0  0  0  0  0  0  0  0  0  # atno 4320 bound_to 2467
   -3.9056   -4.8412    7.9461 LP  0  0  0  0  0  0  0  0  0  0  0  0  # atno 4321 bound_to 2467

> <Gold.Score>
     Score     S(PLP)   S(hbond)     S(cho)   S(metal)  DE(clash)   DE(tors)     intcor
     47.92     -49.33       0.00       0.00       0.00       0.00       0.71       0.00

> <Gold.PLP.Fitness>
47.9196

> <Gold.PLP.PLP>
-49.3333

> <Gold.PLP.part.hbond>
0.0000

> <Gold.PLP.part.metal>
0.0000

> <Gold.PLP.part.buried>
-5.1754

> <Gold.PLP.part.nonpolar>
-44.5296

> <Gold.PLP.part.repulsive>
0.0020

> <Gold.PLP.ligand.clash>
0.0000

> <Gold.PLP.ligand.torsion>
0.7069

> <Gold.PLP.Chemscore.Hbond>
0.0000

> <Gold.PLP.Chemscore.CHOScore>
0.0000

> <Gold.PLP.Chemscore.Metal>
0.0000

> <Gold.PLP.Chemscore.Internal.Correction>
0.0000

