#       Name:                EN300-02904_i001
#       Creating user name   fsindt
#       Creation time:       Tue Feb 28 08:10:30 2023


#       File generated by GOLD software.
#

@<TRIPOS>MOLECULE
EN300-02904_i001|amine_7|mol2|4351|dock7
    32    33     1
SMALL
USER_CHARGES


@<TRIPOS>ATOM
      1 C1          -0.7131 -10.8800   9.5120 C.3            1 <1>                0.0000
      2 C2           0.0830 -12.0462   8.9851 C.ar           1 <1>                0.0000
      3 C3           0.5504 -12.0538   7.6779 C.ar           1 <1>                0.0000
      4 C4           1.2773 -13.1371   7.2259 C.ar           1 <1>                0.0000
      5 N5           1.5308 -14.1604   8.0192 N.ar           1 <1>                0.0000
      6 C6           1.1024 -14.1907   9.2718 C.ar           1 <1>                0.0000
      7 N7           1.3925 -15.2892  10.0727 N.pl3          1 <1>                0.0000
      8 C8           1.2232 -15.2017  11.5253 C.3            1 <1>                0.0000
      9 C9          -0.2045 -15.6066  11.8976 C.3            1 <1>                0.0000
     10 C10         -0.3813 -15.5153  13.4146 C.3            1 <1>                0.0000
     11 C11          0.6110 -16.4558  14.1012 C.3            1 <1>                0.0000
     12 C12          2.0388 -16.0509  13.7289 C.3            1 <1>                0.0000
     13 C13          2.2156 -16.1423  12.2119 C.3            1 <1>                0.0000
     14 C14          0.3693 -13.1307   9.7950 C.ar           1 <1>                0.0000
     15 H15         -1.7739 -11.0530   9.3309 H              1 <1>                0.0000
     16 H16         -0.5395 -10.7759  10.5830 H              1 <1>                0.0000
     17 H17         -0.4016  -9.9679   9.0030 H              1 <1>                0.0000
     18 H18          0.3473 -11.2209   7.0210 H              1 <1>                0.0000
     19 H19          1.6429 -13.1471   6.2096 H              1 <1>                0.0000
     20 H20          1.4074 -14.1782  11.8516 H              1 <1>                0.0000
     21 H21         -0.9114 -14.9366  11.4084 H              1 <1>                0.0000
     22 H22         -0.3887 -16.6303  11.5713 H              1 <1>                0.0000
     23 H23         -0.1971 -14.4918  13.7409 H              1 <1>                0.0000
     24 H24         -1.3984 -15.8038  13.6799 H              1 <1>                0.0000
     25 H25          0.4850 -16.3909  15.1820 H              1 <1>                0.0000
     26 H26          0.4269 -17.4795  13.7750 H              1 <1>                0.0000
     27 H27          2.2229 -15.0274  14.0552 H              1 <1>                0.0000
     28 H28          2.7458 -16.7210  14.2181 H              1 <1>                0.0000
     29 H29          2.0315 -17.1659  11.8856 H              1 <1>                0.0000
     30 H30          3.2327 -15.8539  11.9467 H              1 <1>                0.0000
     31 H31          0.0214 -13.1574  10.8171 H              1 <1>                0.0000
     32 H32          1.7070 -16.1136   9.6697 H              1 <1>                0.0000
@<TRIPOS>BOND
    1    1    2 1     
    2    1   15 1     
    3    1   16 1     
    4    1   17 1     
    5    2    3 ar    
    6    2   14 ar    
    7    3    4 ar    
    8    3   18 1     
    9    4    5 ar    
   10    4   19 1     
   11    5    6 ar    
   12    6    7 1     
   13    6   14 ar    
   14    7    8 1     
   15    7   32 1     
   16    8    9 1     
   17    8   13 1     
   18    8   20 1     
   19    9   10 1     
   20    9   21 1     
   21    9   22 1     
   22   10   11 1     
   23   10   23 1     
   24   10   24 1     
   25   11   12 1     
   26   11   25 1     
   27   11   26 1     
   28   12   13 1     
   29   12   27 1     
   30   12   28 1     
   31   13   29 1     
   32   13   30 1     
   33   14   31 1     
@<TRIPOS>SUBSTRUCTURE
      1 ****           1
@<TRIPOS>SET
DONOR_HYDROGENS      STATIC     ATOMS    <user>   **** ""
1 32
ATOM$RED        STATIC     ATOMS    COLORGROUP SYSTEM
1 32
@<TRIPOS>COMMENT
> <Gold.Version>
2022.2.0

> <Gold.Id.Protein>
3pbl|protein|mol2

> <Gold.Protein.RotatedTorsions>
[ 1303 1298 1297 1294 ] final -125.05 input  179.99 | X-H torsion
[ 2461 2456 2455 2452 ] final   57.45 input   30.03 | X-H torsion
[ 2515 2510 2509 2506 ] final  -37.34 input  -89.99 | X-H torsion
[ 3721 3712 3711 3710 ] final   71.67 input -179.91 | X-H torsion
[ 3841 3832 3831 3830 ] final  -84.45 input -179.91 | X-H torsion
[ 3767 3762 3761 3758 ] final  150.29 input  -89.99 | X-H torsion
[ 2472 2467 2466 2463 ] final -169.07 input  -89.97 | X-H torsion

> <Gold.Protein.ActiveResidues>
 VAL82   VAL86   LEU89   PHE106  VAL107  ASP110  VAL111  MET112  CYS114  THR115 
 CYS181  SER182  ILE183  PHE188  VAL189  ILE190  SER192  SER193  SER196  TRP342 
 PHE345  PHE346  HIS349  VAL350  TYR365  THR369  GLY372  TYR373 

> <Gold.Protein.RotatedAtoms>
    4.3015   -8.4758    4.1414 H   0  0  0  0  0  0  0  0  0  0  0  0  # atno 1303 bound_to 1298
    1.8879   -8.0149    7.3530 H   0  0  0  0  0  0  0  0  0  0  0  0  # atno 2461 bound_to 2456
   -5.2324   -5.4230    9.1530 H   0  0  0  0  0  0  0  0  0  0  0  0  # atno 2472 bound_to 2467
    2.7544   -8.1367    4.3614 H   0  0  0  0  0  0  0  0  0  0  0  0  # atno 2515 bound_to 2510
   -2.6586  -17.8104   13.2536 H   0  0  0  0  0  0  0  0  0  0  0  0  # atno 3721 bound_to 3712
   -3.9196  -22.8940   11.2968 H   0  0  0  0  0  0  0  0  0  0  0  0  # atno 3767 bound_to 3762
    1.7955  -19.6393    8.7634 H   0  0  0  0  0  0  0  0  0  0  0  0  # atno 3841 bound_to 3832
    4.6974   -9.8407    4.9456 LP  0  0  0  0  0  0  0  0  0  0  0  0  # atno 4297 bound_to 1298
    3.3632   -9.8052    4.0047 LP  0  0  0  0  0  0  0  0  0  0  0  0  # atno 4298 bound_to 1298
    0.3599   -8.5902    7.3942 LP  0  0  0  0  0  0  0  0  0  0  0  0  # atno 4299 bound_to 2456
    1.4902   -9.2029    8.4009 LP  0  0  0  0  0  0  0  0  0  0  0  0  # atno 4300 bound_to 2456
    2.4817   -9.2138    5.5578 LP  0  0  0  0  0  0  0  0  0  0  0  0  # atno 4301 bound_to 2510
    2.0604   -7.6487    5.7564 LP  0  0  0  0  0  0  0  0  0  0  0  0  # atno 4302 bound_to 2510
   -2.8913  -17.5868   14.8264 LP  0  0  0  0  0  0  0  0  0  0  0  0  # atno 4306 bound_to 3712
   -3.5669  -16.5771   13.7352 LP  0  0  0  0  0  0  0  0  0  0  0  0  # atno 4307 bound_to 3712
    3.1057  -20.4950    8.4065 LP  0  0  0  0  0  0  0  0  0  0  0  0  # atno 4314 bound_to 3832
    2.0496  -21.0240    9.5341 LP  0  0  0  0  0  0  0  0  0  0  0  0  # atno 4315 bound_to 3832
   -4.9793  -23.0600   10.0655 LP  0  0  0  0  0  0  0  0  0  0  0  0  # atno 4318 bound_to 3762
   -5.2282  -21.9211   11.2089 LP  0  0  0  0  0  0  0  0  0  0  0  0  # atno 4319 bound_to 3762
   -4.8192   -4.8466    7.6822 LP  0  0  0  0  0  0  0  0  0  0  0  0  # atno 4320 bound_to 2467
   -3.6655   -5.1240    8.8040 LP  0  0  0  0  0  0  0  0  0  0  0  0  # atno 4321 bound_to 2467

> <Gold.Score>
     Score     S(PLP)   S(hbond)     S(cho)   S(metal)  DE(clash)   DE(tors)     intcor
     44.83     -42.68       1.00       0.00       0.00       0.00       0.42       0.00

> <Gold.PLP.Fitness>
44.8319

> <Gold.PLP.PLP>
-42.6808

> <Gold.PLP.part.hbond>
-1.0000

> <Gold.PLP.part.metal>
0.0000

> <Gold.PLP.part.buried>
-2.9982

> <Gold.PLP.part.nonpolar>
-40.2203

> <Gold.PLP.part.repulsive>
0.1763

> <Gold.PLP.ligand.clash>
0.0000

> <Gold.PLP.ligand.torsion>
0.4244

> <Gold.PLP.Chemscore.Hbond>
1.0000

> <Gold.PLP.Chemscore.CHOScore>
0.0000

> <Gold.PLP.Chemscore.Metal>
0.0000

> <Gold.Chemscore.Hbonds>
donor molecule, donor type, donor heavy atom, donor atom, acceptor molecule, acceptor atom, score
      L1  H     7    32       P1  1227  1.00

> <Gold.PLP.Chemscore.Internal.Correction>
0.0000

