#       Name:                EN300-02904_i001
#       Creating user name   fsindt
#       Creation time:       Tue Feb 28 08:10:32 2023


#       File generated by GOLD software.
#

@<TRIPOS>MOLECULE
EN300-02904_i001|amine_7|mol2|4351|dock12
    32    33     1
SMALL
USER_CHARGES


@<TRIPOS>ATOM
      1 C1          -4.0629 -10.1831  10.2039 C.3            1 <1>                0.0000
      2 C2          -2.6491 -10.6534  10.4302 C.ar           1 <1>                0.0000
      3 C3          -1.6234  -9.7422  10.6427 C.ar           1 <1>                0.0000
      4 C4          -0.3390 -10.2055  10.8474 C.ar           1 <1>                0.0000
      5 N5          -0.0772 -11.4986  10.8428 N.ar           1 <1>                0.0000
      6 C6          -1.0278 -12.3988  10.6437 C.ar           1 <1>                0.0000
      7 N7          -0.7073 -13.7513  10.6469 N.pl3          1 <1>                0.0000
      8 C8           0.0934 -14.3117  11.7384 C.3            1 <1>                0.0000
      9 C9          -0.7447 -15.3293  12.5151 C.3            1 <1>                0.0000
     10 C10          0.0914 -15.9146  13.6550 C.3            1 <1>                0.0000
     11 C11          1.3277 -16.6066  13.0774 C.3            1 <1>                0.0000
     12 C12          2.1657 -15.5890  12.3007 C.3            1 <1>                0.0000
     13 C13          1.3296 -15.0038  11.1609 C.3            1 <1>                0.0000
     14 C14         -2.3451 -12.0031  10.4365 C.ar           1 <1>                0.0000
     15 H15         -4.2287 -10.0308   9.1374 H              1 <1>                0.0000
     16 H16         -4.7595 -10.9341  10.5763 H              1 <1>                0.0000
     17 H17         -4.2228  -9.2444  10.7342 H              1 <1>                0.0000
     18 H18         -1.8280  -8.6818  10.6475 H              1 <1>                0.0000
     19 H19          0.4620  -9.5001  11.0131 H              1 <1>                0.0000
     20 H20          0.4052 -13.5107  12.4086 H              1 <1>                0.0000
     21 H21         -1.6254 -14.8363  12.9265 H              1 <1>                0.0000
     22 H22         -1.0565 -16.1304  11.8448 H              1 <1>                0.0000
     23 H23          0.4033 -15.1136  14.3252 H              1 <1>                0.0000
     24 H24         -0.5056 -16.6396  14.2083 H              1 <1>                0.0000
     25 H25          1.9233 -17.0237  13.8895 H              1 <1>                0.0000
     26 H26          1.0158 -17.4077  12.4072 H              1 <1>                0.0000
     27 H27          2.4775 -14.7881  12.9710 H              1 <1>                0.0000
     28 H28          3.0464 -16.0821  11.8893 H              1 <1>                0.0000
     29 H29          1.0178 -15.8048  10.4906 H              1 <1>                0.0000
     30 H30          1.9266 -14.2789  10.6075 H              1 <1>                0.0000
     31 H31         -3.1187 -12.7391  10.2748 H              1 <1>                0.0000
     32 H32         -1.0136 -14.3241   9.9265 H              1 <1>                0.0000
@<TRIPOS>BOND
    1    1    2 1     
    2    1   15 1     
    3    1   16 1     
    4    1   17 1     
    5    2    3 ar    
    6    2   14 ar    
    7    3    4 ar    
    8    3   18 1     
    9    4    5 ar    
   10    4   19 1     
   11    5    6 ar    
   12    6    7 1     
   13    6   14 ar    
   14    7    8 1     
   15    7   32 1     
   16    8    9 1     
   17    8   13 1     
   18    8   20 1     
   19    9   10 1     
   20    9   21 1     
   21    9   22 1     
   22   10   11 1     
   23   10   23 1     
   24   10   24 1     
   25   11   12 1     
   26   11   25 1     
   27   11   26 1     
   28   12   13 1     
   29   12   27 1     
   30   12   28 1     
   31   13   29 1     
   32   13   30 1     
   33   14   31 1     
@<TRIPOS>SUBSTRUCTURE
      1 ****           1
@<TRIPOS>SET
DONOR_HYDROGENS      STATIC     ATOMS    <user>   **** ""
1 32
ATOM$RED        STATIC     ATOMS    COLORGROUP SYSTEM
1 32
@<TRIPOS>COMMENT
> <Gold.Version>
2022.2.0

> <Gold.Id.Protein>
3pbl|protein|mol2

> <Gold.Protein.RotatedTorsions>
[ 1303 1298 1297 1294 ] final -156.93 input  179.99 | X-H torsion
[ 2461 2456 2455 2452 ] final -110.54 input   30.03 | X-H torsion
[ 2515 2510 2509 2506 ] final -145.52 input  -89.99 | X-H torsion
[ 3721 3712 3711 3710 ] final  169.45 input -179.91 | X-H torsion
[ 3841 3832 3831 3830 ] final -152.67 input -179.91 | X-H torsion
[ 3767 3762 3761 3758 ] final -133.98 input  -89.99 | X-H torsion
[ 2472 2467 2466 2463 ] final   20.61 input  -89.97 | X-H torsion

> <Gold.Protein.ActiveResidues>
 VAL82   VAL86   LEU89   PHE106  VAL107  ASP110  VAL111  MET112  CYS114  THR115 
 CYS181  SER182  ILE183  PHE188  VAL189  ILE190  SER192  SER193  SER196  TRP342 
 PHE345  PHE346  HIS349  VAL350  TYR365  THR369  GLY372  TYR373 

> <Gold.Protein.RotatedAtoms>
    4.6810   -8.6221    4.4619 H   0  0  0  0  0  0  0  0  0  0  0  0  # atno 1303 bound_to 1298
    0.4822   -9.1040    7.9503 H   0  0  0  0  0  0  0  0  0  0  0  0  # atno 2461 bound_to 2456
   -4.0335   -4.8175    7.8391 H   0  0  0  0  0  0  0  0  0  0  0  0  # atno 2472 bound_to 2467
    2.5628   -9.2525    5.3857 H   0  0  0  0  0  0  0  0  0  0  0  0  # atno 2515 bound_to 2510
   -3.2927  -16.6799   13.4078 H   0  0  0  0  0  0  0  0  0  0  0  0  # atno 3721 bound_to 3712
   -4.6536  -22.0537   11.6052 H   0  0  0  0  0  0  0  0  0  0  0  0  # atno 3767 bound_to 3762
    2.6624  -19.7745    8.3477 H   0  0  0  0  0  0  0  0  0  0  0  0  # atno 3841 bound_to 3832
    4.3242  -10.1756    4.8162 LP  0  0  0  0  0  0  0  0  0  0  0  0  # atno 4297 bound_to 1298
    3.3568   -9.3239    3.8135 LP  0  0  0  0  0  0  0  0  0  0  0  0  # atno 4298 bound_to 1298
    2.0649   -8.7577    8.1567 LP  0  0  0  0  0  0  0  0  0  0  0  0  # atno 4299 bound_to 2456
    1.1904   -7.9466    7.0412 LP  0  0  0  0  0  0  0  0  0  0  0  0  # atno 4300 bound_to 2456
    2.0361   -7.7905    5.8866 LP  0  0  0  0  0  0  0  0  0  0  0  0  # atno 4301 bound_to 2510
    2.6977   -7.9558    4.4028 LP  0  0  0  0  0  0  0  0  0  0  0  0  # atno 4302 bound_to 2510
   -2.6794  -18.1596   13.5193 LP  0  0  0  0  0  0  0  0  0  0  0  0  # atno 4306 bound_to 3712
   -3.0469  -17.3095   14.8642 LP  0  0  0  0  0  0  0  0  0  0  0  0  # atno 4307 bound_to 3712
    2.7562  -21.1342    9.1953 LP  0  0  0  0  0  0  0  0  0  0  0  0  # atno 4314 bound_to 3832
    1.3977  -20.2285    9.2255 LP  0  0  0  0  0  0  0  0  0  0  0  0  # atno 4315 bound_to 3832
   -4.0439  -23.2770   10.7115 LP  0  0  0  0  0  0  0  0  0  0  0  0  # atno 4318 bound_to 3762
   -5.4299  -22.5442   10.2547 LP  0  0  0  0  0  0  0  0  0  0  0  0  # atno 4319 bound_to 3762
   -4.1769   -5.3823    9.3645 LP  0  0  0  0  0  0  0  0  0  0  0  0  # atno 4320 bound_to 2467
   -5.5064   -5.1937    8.4353 LP  0  0  0  0  0  0  0  0  0  0  0  0  # atno 4321 bound_to 2467

> <Gold.Score>
     Score     S(PLP)   S(hbond)     S(cho)   S(metal)  DE(clash)   DE(tors)     intcor
     44.67     -45.57       0.00       0.00       0.00       0.00       0.45       0.00

> <Gold.PLP.Fitness>
44.6732

> <Gold.PLP.PLP>
-45.5716

> <Gold.PLP.part.hbond>
0.0000

> <Gold.PLP.part.metal>
0.0000

> <Gold.PLP.part.buried>
-0.3948

> <Gold.PLP.part.nonpolar>
-46.2685

> <Gold.PLP.part.repulsive>
0.0276

> <Gold.PLP.ligand.clash>
0.0000

> <Gold.PLP.ligand.torsion>
0.4492

> <Gold.PLP.Chemscore.Hbond>
0.0000

> <Gold.PLP.Chemscore.CHOScore>
0.0000

> <Gold.PLP.Chemscore.Metal>
0.0000

> <Gold.PLP.Chemscore.Internal.Correction>
0.0000

