#       Name:                EN300-02904_i001
#       Creating user name   fsindt
#       Creation time:       Tue Feb 28 08:10:31 2023


#       File generated by GOLD software.
#

@<TRIPOS>MOLECULE
EN300-02904_i001|amine_7|mol2|4351|dock9
    32    33     1
SMALL
USER_CHARGES


@<TRIPOS>ATOM
      1 C1          -4.8240 -11.3950   9.6010 C.3            1 <1>                0.0000
      2 C2          -3.3788 -11.0515   9.8547 C.ar           1 <1>                0.0000
      3 C3          -3.0107  -9.7687  10.2377 C.ar           1 <1>                0.0000
      4 C4          -1.6782  -9.4864  10.4631 C.ar           1 <1>                0.0000
      5 N5          -0.7552 -10.4181  10.3185 N.ar           1 <1>                0.0000
      6 C6          -1.0661 -11.6529   9.9548 C.ar           1 <1>                0.0000
      7 N7          -0.0613 -12.6032   9.8144 N.pl3          1 <1>                0.0000
      8 C8          -0.1105 -13.5632   8.7088 C.3            1 <1>                0.0000
      9 C9           1.0619 -13.3079   7.7594 C.3            1 <1>                0.0000
     10 C10          1.0107 -14.3105   6.6047 C.3            1 <1>                0.0000
     11 C11          1.1044 -15.7330   7.1600 C.3            1 <1>                0.0000
     12 C12         -0.0679 -15.9883   8.1094 C.3            1 <1>                0.0000
     13 C13         -0.0167 -14.9858   9.2640 C.3            1 <1>                0.0000
     14 C14         -2.3895 -12.0087   9.7169 C.ar           1 <1>                0.0000
     15 H15         -5.0616 -11.2149   8.5526 H              1 <1>                0.0000
     16 H16         -4.9946 -12.4454   9.8370 H              1 <1>                0.0000
     17 H17         -5.4611 -10.7732  10.2300 H              1 <1>                0.0000
     18 H18         -3.7592  -8.9994  10.3579 H              1 <1>                0.0000
     19 H19         -1.3875  -8.4898  10.7612 H              1 <1>                0.0000
     20 H20         -1.0489 -13.4457   8.1670 H              1 <1>                0.0000
     21 H21          0.9952 -12.2945   7.3639 H              1 <1>                0.0000
     22 H22          2.0004 -13.4254   8.3012 H              1 <1>                0.0000
     23 H23          0.0722 -14.1930   6.0630 H              1 <1>                0.0000
     24 H24          1.8459 -14.1287   5.9284 H              1 <1>                0.0000
     25 H25          1.0680 -16.4473   6.3374 H              1 <1>                0.0000
     26 H26          2.0430 -15.8506   7.7018 H              1 <1>                0.0000
     27 H27         -1.0064 -15.8708   7.5676 H              1 <1>                0.0000
     28 H28         -0.0011 -17.0018   8.5050 H              1 <1>                0.0000
     29 H29          0.9218 -15.1032   9.8059 H              1 <1>                0.0000
     30 H30         -0.8519 -15.1676   9.9404 H              1 <1>                0.0000
     31 H31         -2.6406 -13.0165   9.4207 H              1 <1>                0.0000
     32 H32          0.6722 -12.6307  10.4485 H              1 <1>                0.0000
@<TRIPOS>BOND
    1    1    2 1     
    2    1   15 1     
    3    1   16 1     
    4    1   17 1     
    5    2    3 ar    
    6    2   14 ar    
    7    3    4 ar    
    8    3   18 1     
    9    4    5 ar    
   10    4   19 1     
   11    5    6 ar    
   12    6    7 1     
   13    6   14 ar    
   14    7    8 1     
   15    7   32 1     
   16    8    9 1     
   17    8   13 1     
   18    8   20 1     
   19    9   10 1     
   20    9   21 1     
   21    9   22 1     
   22   10   11 1     
   23   10   23 1     
   24   10   24 1     
   25   11   12 1     
   26   11   25 1     
   27   11   26 1     
   28   12   13 1     
   29   12   27 1     
   30   12   28 1     
   31   13   29 1     
   32   13   30 1     
   33   14   31 1     
@<TRIPOS>SUBSTRUCTURE
      1 ****           1
@<TRIPOS>SET
DONOR_HYDROGENS      STATIC     ATOMS    <user>   **** ""
1 32
ATOM$RED        STATIC     ATOMS    COLORGROUP SYSTEM
1 32
@<TRIPOS>COMMENT
> <Gold.Version>
2022.2.0

> <Gold.Id.Protein>
3pbl|protein|mol2

> <Gold.Protein.RotatedTorsions>
[ 1303 1298 1297 1294 ] final -174.27 input  179.99 | X-H torsion
[ 2461 2456 2455 2452 ] final   48.37 input   30.03 | X-H torsion
[ 2515 2510 2509 2506 ] final -152.58 input  -89.99 | X-H torsion
[ 3721 3712 3711 3710 ] final  133.29 input -179.91 | X-H torsion
[ 3841 3832 3831 3830 ] final   -8.25 input -179.91 | X-H torsion
[ 3767 3762 3761 3758 ] final   67.81 input  -89.99 | X-H torsion
[ 2472 2467 2466 2463 ] final  119.38 input  -89.97 | X-H torsion

> <Gold.Protein.ActiveResidues>
 VAL82   VAL86   LEU89   PHE106  VAL107  ASP110  VAL111  MET112  CYS114  THR115 
 CYS181  SER182  ILE183  PHE188  VAL189  ILE190  SER192  SER193  SER196  TRP342 
 PHE345  PHE346  HIS349  VAL350  TYR365  THR369  GLY372  TYR373 

> <Gold.Protein.RotatedAtoms>
    4.8219   -8.8028    4.6300 H   0  0  0  0  0  0  0  0  0  0  0  0  # atno 1303 bound_to 1298
    1.7767   -7.9664    7.2657 H   0  0  0  0  0  0  0  0  0  0  0  0  # atno 2461 bound_to 2456
   -5.4130   -5.0719    8.1238 H   0  0  0  0  0  0  0  0  0  0  0  0  # atno 2472 bound_to 2467
    2.5149   -9.2338    5.4898 H   0  0  0  0  0  0  0  0  0  0  0  0  # atno 2515 bound_to 2510
   -3.1028  -17.0620   13.0806 H   0  0  0  0  0  0  0  0  0  0  0  0  # atno 3721 bound_to 3712
   -4.4630  -23.3120   10.2598 H   0  0  0  0  0  0  0  0  0  0  0  0  # atno 3767 bound_to 3762
    1.6721  -20.3908    9.5127 H   0  0  0  0  0  0  0  0  0  0  0  0  # atno 3841 bound_to 3832
    4.0870  -10.2599    4.6841 LP  0  0  0  0  0  0  0  0  0  0  0  0  # atno 4297 bound_to 1298
    3.4530   -9.0588    3.7774 LP  0  0  0  0  0  0  0  0  0  0  0  0  # atno 4298 bound_to 1298
    0.3347   -8.6986    7.4938 LP  0  0  0  0  0  0  0  0  0  0  0  0  # atno 4299 bound_to 2456
    1.6265   -9.1429    8.3885 LP  0  0  0  0  0  0  0  0  0  0  0  0  # atno 4300 bound_to 2456
    2.0487   -7.7025    5.8118 LP  0  0  0  0  0  0  0  0  0  0  0  0  # atno 4301 bound_to 2510
    2.7331   -8.0624    4.3735 LP  0  0  0  0  0  0  0  0  0  0  0  0  # atno 4302 bound_to 2510
   -2.6084  -18.1921   14.1084 LP  0  0  0  0  0  0  0  0  0  0  0  0  # atno 4306 bound_to 3712
   -3.3370  -16.8359   14.6528 LP  0  0  0  0  0  0  0  0  0  0  0  0  # atno 4307 bound_to 3712
    2.2694  -19.6861    8.2001 LP  0  0  0  0  0  0  0  0  0  0  0  0  # atno 4314 bound_to 3832
    3.0285  -20.9648    8.8749 LP  0  0  0  0  0  0  0  0  0  0  0  0  # atno 4315 bound_to 3832
   -5.4934  -22.1250   10.7029 LP  0  0  0  0  0  0  0  0  0  0  0  0  # atno 4318 bound_to 3762
   -4.1709  -22.4383   11.6082 LP  0  0  0  0  0  0  0  0  0  0  0  0  # atno 4319 bound_to 3762
   -3.7923   -4.8776    8.0816 LP  0  0  0  0  0  0  0  0  0  0  0  0  # atno 4320 bound_to 2467
   -4.5118   -5.4440    9.4337 LP  0  0  0  0  0  0  0  0  0  0  0  0  # atno 4321 bound_to 2467

> <Gold.Score>
     Score     S(PLP)   S(hbond)     S(cho)   S(metal)  DE(clash)   DE(tors)     intcor
     52.56     -50.57       0.00       0.89       0.00       0.00       0.34       0.00

> <Gold.PLP.Fitness>
52.5621

> <Gold.PLP.PLP>
-50.5687

> <Gold.PLP.part.hbond>
0.0000

> <Gold.PLP.part.metal>
0.0000

> <Gold.PLP.part.buried>
-2.8233

> <Gold.PLP.part.nonpolar>
-48.0651

> <Gold.PLP.part.repulsive>
0.0334

> <Gold.PLP.ligand.clash>
0.0000

> <Gold.PLP.ligand.torsion>
0.3413

> <Gold.PLP.Chemscore.Hbond>
0.0000

> <Gold.PLP.Chemscore.CHOScore>
0.8920

> <Gold.PLP.Chemscore.Metal>
0.0000

> <Gold.Chemscore.Hbonds>
donor molecule, donor type, donor heavy atom, donor atom, acceptor molecule, acceptor atom, score
      L1  C     4    19       P1  2398  0.89

> <Gold.PLP.Chemscore.Internal.Correction>
0.0000

