#       Name:                EN300-02904_i001
#       Creating user name   fsindt
#       Creation time:       Tue Feb 28 08:10:29 2023


#       File generated by GOLD software.
#

@<TRIPOS>MOLECULE
EN300-02904_i001|amine_7|mol2|4351|dock5
    32    33     1
SMALL
USER_CHARGES


@<TRIPOS>ATOM
      1 C1           0.8103 -12.7483   7.1049 C.3            1 <1>                0.0000
      2 C2           0.4407 -13.1982   8.4949 C.ar           1 <1>                0.0000
      3 C3          -0.4109 -12.4371   9.2843 C.ar           1 <1>                0.0000
      4 C4          -0.7305 -12.8773  10.5533 C.ar           1 <1>                0.0000
      5 N5          -0.2371 -14.0078  11.0217 N.ar           1 <1>                0.0000
      6 C6           0.5781 -14.7614  10.2998 C.ar           1 <1>                0.0000
      7 N7           1.0747 -15.9452  10.8329 N.pl3          1 <1>                0.0000
      8 C8           0.8929 -16.2405  12.2563 C.3            1 <1>                0.0000
      9 C9           0.0922 -17.5352  12.4103 C.3            1 <1>                0.0000
     10 C10         -0.0977 -17.8436  13.8969 C.3            1 <1>                0.0000
     11 C11          1.2700 -18.0076  14.5625 C.3            1 <1>                0.0000
     12 C12          2.0707 -16.7129  14.4085 C.3            1 <1>                0.0000
     13 C13          2.2607 -16.4045  12.9221 C.3            1 <1>                0.0000
     14 C14          0.9377 -14.3816   9.0109 C.ar           1 <1>                0.0000
     15 H15          1.7069 -12.1302   7.1495 H              1 <1>                0.0000
     16 H16          1.0009 -13.6204   6.4795 H              1 <1>                0.0000
     17 H17         -0.0097 -12.1691   6.6804 H              1 <1>                0.0000
     18 H18         -0.8191 -11.5100   8.9096 H              1 <1>                0.0000
     19 H19         -1.3926 -12.2883  11.1708 H              1 <1>                0.0000
     20 H20          0.3535 -15.4211  12.7314 H              1 <1>                0.0000
     21 H21         -0.8821 -17.4184  11.9361 H              1 <1>                0.0000
     22 H22          0.6317 -18.3546  11.9353 H              1 <1>                0.0000
     23 H23         -0.6371 -17.0242  14.3719 H              1 <1>                0.0000
     24 H24         -0.6681 -18.7660  14.0066 H              1 <1>                0.0000
     25 H25          1.1347 -18.2274  15.6215 H              1 <1>                0.0000
     26 H26          1.8095 -18.8270  14.0875 H              1 <1>                0.0000
     27 H27          1.5313 -15.8935  14.8836 H              1 <1>                0.0000
     28 H28          3.0452 -16.8297  14.8828 H              1 <1>                0.0000
     29 H29          2.8001 -17.2239  12.4470 H              1 <1>                0.0000
     30 H30          2.8311 -15.4821  12.8124 H              1 <1>                0.0000
     31 H31          1.6024 -14.9982   8.4240 H              1 <1>                0.0000
     32 H32          1.5417 -16.5756  10.2626 H              1 <1>                0.0000
@<TRIPOS>BOND
    1    1    2 1     
    2    1   15 1     
    3    1   16 1     
    4    1   17 1     
    5    2    3 ar    
    6    2   14 ar    
    7    3    4 ar    
    8    3   18 1     
    9    4    5 ar    
   10    4   19 1     
   11    5    6 ar    
   12    6    7 1     
   13    6   14 ar    
   14    7    8 1     
   15    7   32 1     
   16    8    9 1     
   17    8   13 1     
   18    8   20 1     
   19    9   10 1     
   20    9   21 1     
   21    9   22 1     
   22   10   11 1     
   23   10   23 1     
   24   10   24 1     
   25   11   12 1     
   26   11   25 1     
   27   11   26 1     
   28   12   13 1     
   29   12   27 1     
   30   12   28 1     
   31   13   29 1     
   32   13   30 1     
   33   14   31 1     
@<TRIPOS>SUBSTRUCTURE
      1 ****           1
@<TRIPOS>SET
DONOR_HYDROGENS      STATIC     ATOMS    <user>   **** ""
1 32
ATOM$RED        STATIC     ATOMS    COLORGROUP SYSTEM
1 32
@<TRIPOS>COMMENT
> <Gold.Version>
2022.2.0

> <Gold.Id.Protein>
3pbl|protein|mol2

> <Gold.Protein.RotatedTorsions>
[ 1303 1298 1297 1294 ] final  -60.97 input  179.99 | X-H torsion
[ 2461 2456 2455 2452 ] final -148.57 input   30.03 | X-H torsion
[ 2515 2510 2509 2506 ] final   43.10 input  -89.99 | X-H torsion
[ 3721 3712 3711 3710 ] final -111.67 input -179.91 | X-H torsion
[ 3841 3832 3831 3830 ] final   -9.23 input -179.91 | X-H torsion
[ 3767 3762 3761 3758 ] final    4.88 input  -89.99 | X-H torsion
[ 2472 2467 2466 2463 ] final   -8.90 input  -89.97 | X-H torsion

> <Gold.Protein.ActiveResidues>
 VAL82   VAL86   LEU89   PHE106  VAL107  ASP110  VAL111  MET112  CYS114  THR115 
 CYS181  SER182  ILE183  PHE188  VAL189  ILE190  SER192  SER193  SER196  TRP342 
 PHE345  PHE346  HIS349  VAL350  TYR365  THR369  GLY372  TYR373 

> <Gold.Protein.RotatedAtoms>
    3.5070   -8.9627    3.7783 H   0  0  0  0  0  0  0  0  0  0  0  0  # atno 1303 bound_to 1298
    0.9554   -9.2861    8.2974 H   0  0  0  0  0  0  0  0  0  0  0  0  # atno 2461 bound_to 2456
   -3.7253   -4.9119    8.1951 H   0  0  0  0  0  0  0  0  0  0  0  0  # atno 2472 bound_to 2467
    2.2461   -7.4097    5.1946 H   0  0  0  0  0  0  0  0  0  0  0  0  # atno 2515 bound_to 2510
   -3.1705  -16.7236   14.5007 H   0  0  0  0  0  0  0  0  0  0  0  0  # atno 3721 bound_to 3712
   -5.2770  -22.7763   10.1196 H   0  0  0  0  0  0  0  0  0  0  0  0  # atno 3767 bound_to 3762
    1.6653  -20.3792    9.5065 H   0  0  0  0  0  0  0  0  0  0  0  0  # atno 3841 bound_to 3832
    4.8603   -8.8876    4.6889 LP  0  0  0  0  0  0  0  0  0  0  0  0  # atno 4297 bound_to 1298
    3.9951  -10.2711    4.6246 LP  0  0  0  0  0  0  0  0  0  0  0  0  # atno 4298 bound_to 1298
    2.1428   -8.3132    7.7399 LP  0  0  0  0  0  0  0  0  0  0  0  0  # atno 4299 bound_to 2456
    0.6394   -8.2091    7.1110 LP  0  0  0  0  0  0  0  0  0  0  0  0  # atno 4300 bound_to 2456
    2.8355   -8.7573    4.4860 LP  0  0  0  0  0  0  0  0  0  0  0  0  # atno 4301 bound_to 2510
    2.2152   -8.8326    5.9947 LP  0  0  0  0  0  0  0  0  0  0  0  0  # atno 4302 bound_to 2510
   -3.2574  -17.2343   12.9810 LP  0  0  0  0  0  0  0  0  0  0  0  0  # atno 4306 bound_to 3712
   -2.6099  -18.1844   14.1407 LP  0  0  0  0  0  0  0  0  0  0  0  0  # atno 4307 bound_to 3712
    2.2843  -19.6909    8.1952 LP  0  0  0  0  0  0  0  0  0  0  0  0  # atno 4314 bound_to 3832
    3.0215  -20.9734    8.8870 LP  0  0  0  0  0  0  0  0  0  0  0  0  # atno 4315 bound_to 3832
   -4.9157  -21.9482   11.4799 LP  0  0  0  0  0  0  0  0  0  0  0  0  # atno 4318 bound_to 3762
   -3.9348  -23.1506   10.9713 LP  0  0  0  0  0  0  0  0  0  0  0  0  # atno 4319 bound_to 3762
   -4.6470   -5.4568    9.4279 LP  0  0  0  0  0  0  0  0  0  0  0  0  # atno 4320 bound_to 2467
   -5.3444   -5.0247    8.0160 LP  0  0  0  0  0  0  0  0  0  0  0  0  # atno 4321 bound_to 2467

> <Gold.Score>
     Score     S(PLP)   S(hbond)     S(cho)   S(metal)  DE(clash)   DE(tors)     intcor
     45.59     -42.64       1.00       0.00       0.00       0.00       0.03       0.00

> <Gold.PLP.Fitness>
45.5889

> <Gold.PLP.PLP>
-42.6395

> <Gold.PLP.part.hbond>
-1.0000

> <Gold.PLP.part.metal>
0.0000

> <Gold.PLP.part.buried>
-3.4968

> <Gold.PLP.part.nonpolar>
-38.4655

> <Gold.PLP.part.repulsive>
0.0326

> <Gold.PLP.ligand.clash>
0.0000

> <Gold.PLP.ligand.torsion>
0.0253

> <Gold.PLP.Chemscore.Hbond>
1.0000

> <Gold.PLP.Chemscore.CHOScore>
0.0000

> <Gold.PLP.Chemscore.Metal>
0.0000

> <Gold.Chemscore.Hbonds>
donor molecule, donor type, donor heavy atom, donor atom, acceptor molecule, acceptor atom, score
      L1  H     7    32       P1  1227  1.00

> <Gold.PLP.Chemscore.Internal.Correction>
0.0000

