#       Name:                EN300-02904_i001
#       Creating user name   fsindt
#       Creation time:       Tue Feb 28 08:10:35 2023


#       File generated by GOLD software.
#

@<TRIPOS>MOLECULE
EN300-02904_i001|amine_7|mol2|4351|dock17
    32    33     1
SMALL
USER_CHARGES


@<TRIPOS>ATOM
      1 C1           1.1097 -11.9587   7.4404 C.3            1 <1>                0.0000
      2 C2           0.7121 -13.2494   8.1090 C.ar           1 <1>                0.0000
      3 C3           0.5552 -14.4134   7.3686 C.ar           1 <1>                0.0000
      4 C4           0.1907 -15.5797   8.0113 C.ar           1 <1>                0.0000
      5 N5          -0.0096 -15.5997   9.3152 N.ar           1 <1>                0.0000
      6 C6           0.1300 -14.5108  10.0559 C.ar           1 <1>                0.0000
      7 N7          -0.0911 -14.5772  11.4266 N.pl3          1 <1>                0.0000
      8 C8           0.4438 -15.6998  12.2012 C.3            1 <1>                0.0000
      9 C9           1.9723 -15.6320  12.2085 C.3            1 <1>                0.0000
     10 C10          2.5311 -16.8043  13.0175 C.3            1 <1>                0.0000
     11 C11          2.0102 -16.7269  14.4540 C.3            1 <1>                0.0000
     12 C12          0.4817 -16.7948  14.4467 C.3            1 <1>                0.0000
     13 C13         -0.0769 -15.6224  13.6378 C.3            1 <1>                0.0000
     14 C14          0.5008 -13.3025   9.4752 C.ar           1 <1>                0.0000
     15 H15          0.2146 -11.4193   7.1306 H              1 <1>                0.0000
     16 H16          1.6783 -11.3469   8.1407 H              1 <1>                0.0000
     17 H17          1.7236 -12.1762   6.5664 H              1 <1>                0.0000
     18 H18          0.7163 -14.4065   6.3007 H              1 <1>                0.0000
     19 H19          0.0675 -16.4874   7.4391 H              1 <1>                0.0000
     20 H20          0.1240 -16.6386  11.7489 H              1 <1>                0.0000
     21 H21          2.3433 -15.6871  11.1852 H              1 <1>                0.0000
     22 H22          2.2922 -14.6932  12.6609 H              1 <1>                0.0000
     23 H23          2.2112 -17.7430  12.5651 H              1 <1>                0.0000
     24 H24          3.6199 -16.7559  13.0227 H              1 <1>                0.0000
     25 H25          2.4083 -17.5621  15.0303 H              1 <1>                0.0000
     26 H26          2.3301 -15.7882  14.9064 H              1 <1>                0.0000
     27 H27          0.1619 -17.7335  13.9943 H              1 <1>                0.0000
     28 H28          0.1106 -16.7396  15.4701 H              1 <1>                0.0000
     29 H29          0.2428 -14.6837  14.0901 H              1 <1>                0.0000
     30 H30         -1.1659 -15.6707  13.6326 H              1 <1>                0.0000
     31 H31          0.6144 -12.4160  10.0814 H              1 <1>                0.0000
     32 H32         -0.5995 -13.8804  11.8702 H              1 <1>                0.0000
@<TRIPOS>BOND
    1    1    2 1     
    2    1   15 1     
    3    1   16 1     
    4    1   17 1     
    5    2    3 ar    
    6    2   14 ar    
    7    3    4 ar    
    8    3   18 1     
    9    4    5 ar    
   10    4   19 1     
   11    5    6 ar    
   12    6    7 1     
   13    6   14 ar    
   14    7    8 1     
   15    7   32 1     
   16    8    9 1     
   17    8   13 1     
   18    8   20 1     
   19    9   10 1     
   20    9   21 1     
   21    9   22 1     
   22   10   11 1     
   23   10   23 1     
   24   10   24 1     
   25   11   12 1     
   26   11   25 1     
   27   11   26 1     
   28   12   13 1     
   29   12   27 1     
   30   12   28 1     
   31   13   29 1     
   32   13   30 1     
   33   14   31 1     
@<TRIPOS>SUBSTRUCTURE
      1 ****           1
@<TRIPOS>SET
DONOR_HYDROGENS      STATIC     ATOMS    <user>   **** ""
1 32
ATOM$RED        STATIC     ATOMS    COLORGROUP SYSTEM
1 32
@<TRIPOS>COMMENT
> <Gold.Version>
2022.2.0

> <Gold.Id.Protein>
3pbl|protein|mol2

> <Gold.Protein.RotatedTorsions>
[ 1303 1298 1297 1294 ] final  -74.22 input  179.99 | X-H torsion
[ 2461 2456 2455 2452 ] final  141.46 input   30.03 | X-H torsion
[ 2515 2510 2509 2506 ] final  109.42 input  -89.99 | X-H torsion
[ 3721 3712 3711 3710 ] final  -54.21 input -179.91 | X-H torsion
[ 3841 3832 3831 3830 ] final   26.97 input -179.91 | X-H torsion
[ 3767 3762 3761 3758 ] final -168.45 input  -89.99 | X-H torsion
[ 2472 2467 2466 2463 ] final   31.97 input  -89.97 | X-H torsion

> <Gold.Protein.ActiveResidues>
 VAL82   VAL86   LEU89   PHE106  VAL107  ASP110  VAL111  MET112  CYS114  THR115 
 CYS181  SER182  ILE183  PHE188  VAL189  ILE190  SER192  SER193  SER196  TRP342 
 PHE345  PHE346  HIS349  VAL350  TYR365  THR369  GLY372  TYR373 

> <Gold.Protein.RotatedAtoms>
    3.6378   -8.7906    3.8024 H   0  0  0  0  0  0  0  0  0  0  0  0  # atno 1303 bound_to 1298
    1.9622   -8.8932    8.2563 H   0  0  0  0  0  0  0  0  0  0  0  0  # atno 2461 bound_to 2456
   -4.1954   -4.8022    7.7473 H   0  0  0  0  0  0  0  0  0  0  0  0  # atno 2472 bound_to 2467
    2.0297   -8.0021    6.0104 H   0  0  0  0  0  0  0  0  0  0  0  0  # atno 2515 bound_to 2510
   -2.7580  -17.4065   14.7391 H   0  0  0  0  0  0  0  0  0  0  0  0  # atno 3721 bound_to 3712
   -4.2103  -22.3934   11.6230 H   0  0  0  0  0  0  0  0  0  0  0  0  # atno 3767 bound_to 3762
    2.0277  -20.7593    9.6224 H   0  0  0  0  0  0  0  0  0  0  0  0  # atno 3841 bound_to 3832
    4.9052   -9.0737    4.7923 LP  0  0  0  0  0  0  0  0  0  0  0  0  # atno 4297 bound_to 1298
    3.8194  -10.2572    4.4970 LP  0  0  0  0  0  0  0  0  0  0  0  0  # atno 4298 bound_to 1298
    1.3816   -7.9194    7.0808 LP  0  0  0  0  0  0  0  0  0  0  0  0  # atno 4299 bound_to 2456
    0.3942   -8.9956    7.8112 LP  0  0  0  0  0  0  0  0  0  0  0  0  # atno 4300 bound_to 2456
    2.6103   -7.7508    4.5052 LP  0  0  0  0  0  0  0  0  0  0  0  0  # atno 4301 bound_to 2510
    2.6569   -9.2464    5.1593 LP  0  0  0  0  0  0  0  0  0  0  0  0  # atno 4302 bound_to 2510
   -3.5574  -16.6157   13.5931 LP  0  0  0  0  0  0  0  0  0  0  0  0  # atno 4306 bound_to 3712
   -2.7862  -18.0145   13.2534 LP  0  0  0  0  0  0  0  0  0  0  0  0  # atno 4307 bound_to 3712
    1.7662  -19.6569    8.4855 LP  0  0  0  0  0  0  0  0  0  0  0  0  # atno 4314 bound_to 3832
    3.1209  -20.5683    8.4628 LP  0  0  0  0  0  0  0  0  0  0  0  0  # atno 4315 bound_to 3832
   -4.4141  -23.3226   10.2957 LP  0  0  0  0  0  0  0  0  0  0  0  0  # atno 4318 bound_to 3762
   -5.5027  -22.1589   10.6526 LP  0  0  0  0  0  0  0  0  0  0  0  0  # atno 4319 bound_to 3762
   -4.0171   -5.3345    9.2807 LP  0  0  0  0  0  0  0  0  0  0  0  0  # atno 4320 bound_to 2467
   -5.5044   -5.2568    8.6111 LP  0  0  0  0  0  0  0  0  0  0  0  0  # atno 4321 bound_to 2467

> <Gold.Score>
     Score     S(PLP)   S(hbond)     S(cho)   S(metal)  DE(clash)   DE(tors)     intcor
     48.01     -48.83       0.00       0.00       0.00       0.00       0.41       0.00

> <Gold.PLP.Fitness>
48.0141

> <Gold.PLP.PLP>
-48.8270

> <Gold.PLP.part.hbond>
0.0000

> <Gold.PLP.part.metal>
0.0000

> <Gold.PLP.part.buried>
-4.0526

> <Gold.PLP.part.nonpolar>
-45.2334

> <Gold.PLP.part.repulsive>
0.1233

> <Gold.PLP.ligand.clash>
0.0000

> <Gold.PLP.ligand.torsion>
0.4065

> <Gold.PLP.Chemscore.Hbond>
0.0000

> <Gold.PLP.Chemscore.CHOScore>
0.0000

> <Gold.PLP.Chemscore.Metal>
0.0000

> <Gold.PLP.Chemscore.Internal.Correction>
0.0000

