#       Name:                EN300-02904_i001
#       Creating user name   fsindt
#       Creation time:       Tue Feb 28 08:10:33 2023


#       File generated by GOLD software.
#

@<TRIPOS>MOLECULE
EN300-02904_i001|amine_7|mol2|4351|dock13
    32    33     1
SMALL
USER_CHARGES


@<TRIPOS>ATOM
      1 C1           0.4478 -15.3623   7.6371 C.3            1 <1>                0.0000
      2 C2           0.5099 -13.8619   7.7636 C.ar           1 <1>                0.0000
      3 C3           1.0580 -13.0863   6.7509 C.ar           1 <1>                0.0000
      4 C4           1.0994 -11.7140   6.8972 C.ar           1 <1>                0.0000
      5 N5           0.6264 -11.1348   7.9842 N.ar           1 <1>                0.0000
      6 C6           0.0960 -11.8397   8.9718 C.ar           1 <1>                0.0000
      7 N7          -0.3905 -11.1881  10.0992 N.pl3          1 <1>                0.0000
      8 C8          -1.8192 -11.2445  10.4183 C.3            1 <1>                0.0000
      9 C9          -2.3186  -9.8419  10.7710 C.3            1 <1>                0.0000
     10 C10         -3.8108  -9.9006  11.1043 C.3            1 <1>                0.0000
     11 C11         -4.5834 -10.4276   9.8934 C.3            1 <1>                0.0000
     12 C12         -4.0840 -11.8302   9.5407 C.3            1 <1>                0.0000
     13 C13         -2.5919 -11.7714   9.2074 C.3            1 <1>                0.0000
     14 C14          0.0167 -13.2259   8.8889 C.ar           1 <1>                0.0000
     15 H15          1.3573 -15.7995   8.0492 H              1 <1>                0.0000
     16 H16         -0.4164 -15.7376   8.1851 H              1 <1>                0.0000
     17 H17          0.3578 -15.6349   6.5856 H              1 <1>                0.0000
     18 H18          1.4483 -13.5516   5.8578 H              1 <1>                0.0000
     19 H19          1.5250 -11.1068   6.1118 H              1 <1>                0.0000
     20 H20         -1.9760 -11.9100  11.2671 H              1 <1>                0.0000
     21 H21         -1.7682  -9.4665  11.6336 H              1 <1>                0.0000
     22 H22         -2.1619  -9.1763   9.9222 H              1 <1>                0.0000
     23 H23         -3.9675 -10.5663  11.9531 H              1 <1>                0.0000
     24 H24         -4.1666  -8.9015  11.3555 H              1 <1>                0.0000
     25 H25         -5.6464 -10.4694  10.1308 H              1 <1>                0.0000
     26 H26         -4.4267  -9.7620   9.0446 H              1 <1>                0.0000
     27 H27         -4.2408 -12.4958  10.3896 H              1 <1>                0.0000
     28 H28         -4.6344 -12.2056   8.6780 H              1 <1>                0.0000
     29 H29         -2.4351 -11.1058   8.3586 H              1 <1>                0.0000
     30 H30         -2.2361 -12.7706   8.9561 H              1 <1>                0.0000
     31 H31         -0.4167 -13.7986   9.6954 H              1 <1>                0.0000
     32 H32          0.2160 -10.6961  10.6745 H              1 <1>                0.0000
@<TRIPOS>BOND
    1    1    2 1     
    2    1   15 1     
    3    1   16 1     
    4    1   17 1     
    5    2    3 ar    
    6    2   14 ar    
    7    3    4 ar    
    8    3   18 1     
    9    4    5 ar    
   10    4   19 1     
   11    5    6 ar    
   12    6    7 1     
   13    6   14 ar    
   14    7    8 1     
   15    7   32 1     
   16    8    9 1     
   17    8   13 1     
   18    8   20 1     
   19    9   10 1     
   20    9   21 1     
   21    9   22 1     
   22   10   11 1     
   23   10   23 1     
   24   10   24 1     
   25   11   12 1     
   26   11   25 1     
   27   11   26 1     
   28   12   13 1     
   29   12   27 1     
   30   12   28 1     
   31   13   29 1     
   32   13   30 1     
   33   14   31 1     
@<TRIPOS>SUBSTRUCTURE
      1 ****           1
@<TRIPOS>SET
DONOR_HYDROGENS      STATIC     ATOMS    <user>   **** ""
1 32
ATOM$RED        STATIC     ATOMS    COLORGROUP SYSTEM
1 32
@<TRIPOS>COMMENT
> <Gold.Version>
2022.2.0

> <Gold.Id.Protein>
3pbl|protein|mol2

> <Gold.Protein.RotatedTorsions>
[ 1303 1298 1297 1294 ] final    8.87 input  179.99 | X-H torsion
[ 2461 2456 2455 2452 ] final -137.22 input   30.03 | X-H torsion
[ 2515 2510 2509 2506 ] final    0.45 input  -89.99 | X-H torsion
[ 3721 3712 3711 3710 ] final   -2.83 input -179.91 | X-H torsion
[ 3841 3832 3831 3830 ] final   36.64 input -179.91 | X-H torsion
[ 3767 3762 3761 3758 ] final  -79.42 input  -89.99 | X-H torsion
[ 2472 2467 2466 2463 ] final  131.37 input  -89.97 | X-H torsion

> <Gold.Protein.ActiveResidues>
 VAL82   VAL86   LEU89   PHE106  VAL107  ASP110  VAL111  MET112  CYS114  THR115 
 CYS181  SER182  ILE183  PHE188  VAL189  ILE190  SER192  SER193  SER196  TRP342 
 PHE345  PHE346  HIS349  VAL350  TYR365  THR369  GLY372  TYR373 

> <Gold.Protein.RotatedAtoms>
    3.4403   -9.9817    4.1274 H   0  0  0  0  0  0  0  0  0  0  0  0  # atno 1303 bound_to 1298
    0.7902   -9.2609    8.2146 H   0  0  0  0  0  0  0  0  0  0  0  0  # atno 2461 bound_to 2456
   -5.4810   -5.1412    8.2952 H   0  0  0  0  0  0  0  0  0  0  0  0  # atno 2472 bound_to 2467
    2.5378   -7.6244    4.6128 H   0  0  0  0  0  0  0  0  0  0  0  0  # atno 2515 bound_to 2510
   -2.4934  -17.9394   14.2810 H   0  0  0  0  0  0  0  0  0  0  0  0  # atno 3721 bound_to 3712
   -5.3289  -21.9488   11.0759 H   0  0  0  0  0  0  0  0  0  0  0  0  # atno 3767 bound_to 3762
    2.1529  -20.8335    9.6113 H   0  0  0  0  0  0  0  0  0  0  0  0  # atno 3841 bound_to 3832
    4.1112   -8.4971    4.0169 LP  0  0  0  0  0  0  0  0  0  0  0  0  # atno 4297 bound_to 1298
    4.8109   -9.6422    4.9474 LP  0  0  0  0  0  0  0  0  0  0  0  0  # atno 4298 bound_to 1298
    2.1612   -8.4412    7.8742 LP  0  0  0  0  0  0  0  0  0  0  0  0  # atno 4299 bound_to 2456
    0.7862   -8.1062    7.0596 LP  0  0  0  0  0  0  0  0  0  0  0  0  # atno 4300 bound_to 2456
    2.7168   -9.2018    4.9943 LP  0  0  0  0  0  0  0  0  0  0  0  0  # atno 4301 bound_to 2510
    2.0420   -8.1733    6.0684 LP  0  0  0  0  0  0  0  0  0  0  0  0  # atno 4302 bound_to 2510
   -3.4574  -16.6625   14.4157 LP  0  0  0  0  0  0  0  0  0  0  0  0  # atno 4306 bound_to 3712
   -3.1916  -17.3524   12.9597 LP  0  0  0  0  0  0  0  0  0  0  0  0  # atno 4307 bound_to 3712
    1.6528  -19.6983    8.5928 LP  0  0  0  0  0  0  0  0  0  0  0  0  # atno 4314 bound_to 3832
    3.0896  -20.4412    8.3684 LP  0  0  0  0  0  0  0  0  0  0  0  0  # atno 4315 bound_to 3832
   -3.9585  -22.7727   11.4080 LP  0  0  0  0  0  0  0  0  0  0  0  0  # atno 4318 bound_to 3762
   -4.8402  -23.1533   10.0873 LP  0  0  0  0  0  0  0  0  0  0  0  0  # atno 4319 bound_to 3762
   -3.9174   -4.8384    7.9347 LP  0  0  0  0  0  0  0  0  0  0  0  0  # atno 4320 bound_to 2467
   -4.3187   -5.4140    9.4092 LP  0  0  0  0  0  0  0  0  0  0  0  0  # atno 4321 bound_to 2467

> <Gold.Score>
     Score     S(PLP)   S(hbond)     S(cho)   S(metal)  DE(clash)   DE(tors)     intcor
     55.62     -55.99       1.00       0.00       0.00       1.83       0.77       0.00

> <Gold.PLP.Fitness>
55.6163

> <Gold.PLP.PLP>
-55.9898

> <Gold.PLP.part.hbond>
-1.0000

> <Gold.PLP.part.metal>
0.0000

> <Gold.PLP.part.buried>
-5.0631

> <Gold.PLP.part.nonpolar>
-50.9008

> <Gold.PLP.part.repulsive>
0.0000

> <Gold.PLP.ligand.clash>
1.8341

> <Gold.PLP.ligand.torsion>
0.7697

> <Gold.PLP.Chemscore.Hbond>
1.0000

> <Gold.PLP.Chemscore.CHOScore>
0.0000

> <Gold.PLP.Chemscore.Metal>
0.0000

> <Gold.Chemscore.Hbonds>
donor molecule, donor type, donor heavy atom, donor atom, acceptor molecule, acceptor atom, score
      P1  H  2456  2461       L1     5  1.00

> <Gold.PLP.Chemscore.Internal.Correction>
0.0000

