#       Name:                EN300-02904_i001
#       Creating user name   fsindt
#       Creation time:       Tue Feb 28 08:10:31 2023


#       File generated by GOLD software.
#

@<TRIPOS>MOLECULE
EN300-02904_i001|amine_7|mol2|4351|dock10
    32    33     1
SMALL
USER_CHARGES


@<TRIPOS>ATOM
      1 C1           0.7998 -15.3016   6.8940 C.3            1 <1>                0.0000
      2 C2           0.5854 -14.2637   7.9654 C.ar           1 <1>                0.0000
      3 C3           0.7118 -12.9111   7.6787 C.ar           1 <1>                0.0000
      4 C4           0.5084 -11.9852   8.6825 C.ar           1 <1>                0.0000
      5 N5           0.1973 -12.3703   9.9055 N.ar           1 <1>                0.0000
      6 C6           0.0677 -13.6505  10.2185 C.ar           1 <1>                0.0000
      7 N7          -0.2613 -14.0116  11.5199 N.pl3          1 <1>                0.0000
      8 C8           0.2044 -15.2889  12.0655 C.3            1 <1>                0.0000
      9 C9           1.7304 -15.2704  12.1755 C.3            1 <1>                0.0000
     10 C10          2.2169 -16.6044  12.7454 C.3            1 <1>                0.0000
     11 C11          1.6081 -16.8187  14.1326 C.3            1 <1>                0.0000
     12 C12          0.0822 -16.8373  14.0226 C.3            1 <1>                0.0000
     13 C13         -0.4043 -15.5033  13.4528 C.3            1 <1>                0.0000
     14 C14          0.2527 -14.6369   9.2554 C.ar           1 <1>                0.0000
     15 H15          1.8497 -15.5941   6.8765 H              1 <1>                0.0000
     16 H16          0.1828 -16.1749   7.1057 H              1 <1>                0.0000
     17 H17          0.5219 -14.8866   5.9252 H              1 <1>                0.0000
     18 H18          0.9668 -12.5865   6.6807 H              1 <1>                0.0000
     19 H19          0.6057 -10.9320   8.4638 H              1 <1>                0.0000
     20 H20         -0.1023 -16.0998  11.4048 H              1 <1>                0.0000
     21 H21          2.1641 -15.1176  11.1873 H              1 <1>                0.0000
     22 H22          2.0372 -14.4595  12.8363 H              1 <1>                0.0000
     23 H23          1.9101 -17.4152  12.0847 H              1 <1>                0.0000
     24 H24          3.3040 -16.5911  12.8239 H              1 <1>                0.0000
     25 H25          1.9547 -17.7690  14.5386 H              1 <1>                0.0000
     26 H26          1.9149 -16.0079  14.7933 H              1 <1>                0.0000
     27 H27         -0.2246 -17.6481  13.3619 H              1 <1>                0.0000
     28 H28         -0.3516 -16.9900  15.0108 H              1 <1>                0.0000
     29 H29         -0.0976 -14.6924  14.1134 H              1 <1>                0.0000
     30 H30         -1.4914 -15.5165  13.3744 H              1 <1>                0.0000
     31 H31          0.1460 -15.6803   9.5129 H              1 <1>                0.0000
     32 H32         -0.7993 -13.4178  12.0666 H              1 <1>                0.0000
@<TRIPOS>BOND
    1    1    2 1     
    2    1   15 1     
    3    1   16 1     
    4    1   17 1     
    5    2    3 ar    
    6    2   14 ar    
    7    3    4 ar    
    8    3   18 1     
    9    4    5 ar    
   10    4   19 1     
   11    5    6 ar    
   12    6    7 1     
   13    6   14 ar    
   14    7    8 1     
   15    7   32 1     
   16    8    9 1     
   17    8   13 1     
   18    8   20 1     
   19    9   10 1     
   20    9   21 1     
   21    9   22 1     
   22   10   11 1     
   23   10   23 1     
   24   10   24 1     
   25   11   12 1     
   26   11   25 1     
   27   11   26 1     
   28   12   13 1     
   29   12   27 1     
   30   12   28 1     
   31   13   29 1     
   32   13   30 1     
   33   14   31 1     
@<TRIPOS>SUBSTRUCTURE
      1 ****           1
@<TRIPOS>SET
DONOR_HYDROGENS      STATIC     ATOMS    <user>   **** ""
1 32
ATOM$RED        STATIC     ATOMS    COLORGROUP SYSTEM
1 32
@<TRIPOS>COMMENT
> <Gold.Version>
2022.2.0

> <Gold.Id.Protein>
3pbl|protein|mol2

> <Gold.Protein.RotatedTorsions>
[ 1303 1298 1297 1294 ] final  -73.15 input  179.99 | X-H torsion
[ 2461 2456 2455 2452 ] final   -0.03 input   30.03 | X-H torsion
[ 2515 2510 2509 2506 ] final  156.15 input  -89.99 | X-H torsion
[ 3721 3712 3711 3710 ] final   59.21 input -179.91 | X-H torsion
[ 3841 3832 3831 3830 ] final  -41.09 input -179.91 | X-H torsion
[ 3767 3762 3761 3758 ] final  -63.51 input  -89.99 | X-H torsion
[ 2472 2467 2466 2463 ] final  -16.94 input  -89.97 | X-H torsion

> <Gold.Protein.ActiveResidues>
 VAL82   VAL86   LEU89   PHE106  VAL107  ASP110  VAL111  MET112  CYS114  THR115 
 CYS181  SER182  ILE183  PHE188  VAL189  ILE190  SER192  SER193  SER196  TRP342 
 PHE345  PHE346  HIS349  VAL350  TYR365  THR369  GLY372  TYR373 

> <Gold.Protein.RotatedAtoms>
    3.6262   -8.8035    3.7993 H   0  0  0  0  0  0  0  0  0  0  0  0  # atno 1303 bound_to 1298
    1.0405   -7.9884    7.0307 H   0  0  0  0  0  0  0  0  0  0  0  0  # atno 2461 bound_to 2456
   -3.6773   -4.9490    8.3125 H   0  0  0  0  0  0  0  0  0  0  0  0  # atno 2472 bound_to 2467
    2.1759   -8.7346    6.0383 H   0  0  0  0  0  0  0  0  0  0  0  0  # atno 2515 bound_to 2510
   -2.5871  -17.9135   13.3936 H   0  0  0  0  0  0  0  0  0  0  0  0  # atno 3721 bound_to 3712
   -5.4447  -22.0350   10.8584 H   0  0  0  0  0  0  0  0  0  0  0  0  # atno 3767 bound_to 3762
    1.5617  -20.0036    9.2343 H   0  0  0  0  0  0  0  0  0  0  0  0  # atno 3841 bound_to 3832
    4.9031   -9.0580    4.7848 LP  0  0  0  0  0  0  0  0  0  0  0  0  # atno 4297 bound_to 1298
    3.8331  -10.2601    4.5077 LP  0  0  0  0  0  0  0  0  0  0  0  0  # atno 4298 bound_to 1298
    0.5761   -9.1742    8.0531 LP  0  0  0  0  0  0  0  0  0  0  0  0  # atno 4299 bound_to 2456
    2.1211   -8.6454    8.0641 LP  0  0  0  0  0  0  0  0  0  0  0  0  # atno 4300 bound_to 2456
    2.2906   -7.4108    5.0894 LP  0  0  0  0  0  0  0  0  0  0  0  0  # atno 4301 bound_to 2510
    2.8304   -8.8535    4.5472 LP  0  0  0  0  0  0  0  0  0  0  0  0  # atno 4302 bound_to 2510
   -2.9905  -17.4079   14.8631 LP  0  0  0  0  0  0  0  0  0  0  0  0  # atno 4306 bound_to 3712
   -3.5503  -16.6369   13.5368 LP  0  0  0  0  0  0  0  0  0  0  0  0  # atno 4307 bound_to 3712
    2.7392  -19.9493    8.1449 LP  0  0  0  0  0  0  0  0  0  0  0  0  # atno 4314 bound_to 3832
    2.6861  -21.1488    9.2517 LP  0  0  0  0  0  0  0  0  0  0  0  0  # atno 4315 bound_to 3832
   -4.0647  -22.5765   11.5434 LP  0  0  0  0  0  0  0  0  0  0  0  0  # atno 4318 bound_to 3762
   -4.6183  -23.2634   10.1692 LP  0  0  0  0  0  0  0  0  0  0  0  0  # atno 4319 bound_to 3762
   -4.7769   -5.4628    9.4048 LP  0  0  0  0  0  0  0  0  0  0  0  0  # atno 4320 bound_to 2467
   -5.2625   -4.9817    7.9218 LP  0  0  0  0  0  0  0  0  0  0  0  0  # atno 4321 bound_to 2467

> <Gold.Score>
     Score     S(PLP)   S(hbond)     S(cho)   S(metal)  DE(clash)   DE(tors)     intcor
     46.24     -44.20       0.00       0.83       0.00       0.00       0.22       0.00

> <Gold.PLP.Fitness>
46.2388

> <Gold.PLP.PLP>
-44.2008

> <Gold.PLP.part.hbond>
0.0000

> <Gold.PLP.part.metal>
0.0000

> <Gold.PLP.part.buried>
-4.1849

> <Gold.PLP.part.nonpolar>
-40.6977

> <Gold.PLP.part.repulsive>
0.0463

> <Gold.PLP.ligand.clash>
0.0000

> <Gold.PLP.ligand.torsion>
0.2202

> <Gold.PLP.Chemscore.Hbond>
0.0000

> <Gold.PLP.Chemscore.CHOScore>
0.8261

> <Gold.PLP.Chemscore.Metal>
0.0000

> <Gold.Chemscore.Hbonds>
donor molecule, donor type, donor heavy atom, donor atom, acceptor molecule, acceptor atom, score
      L1  C     4    19       P1  2456  0.83

> <Gold.PLP.Chemscore.Internal.Correction>
0.0000

