#       Name:                EN300-02904_i001
#       Creating user name   fsindt
#       Creation time:       Tue Feb 28 08:10:30 2023


#       File generated by GOLD software.
#

@<TRIPOS>MOLECULE
EN300-02904_i001|amine_7|mol2|4351|dock8
    32    33     1
SMALL
USER_CHARGES


@<TRIPOS>ATOM
      1 C1          -4.5984 -10.5027   9.9944 C.3            1 <1>                0.0000
      2 C2          -3.1059 -10.6329  10.1578 C.ar           1 <1>                0.0000
      3 C3          -2.5101 -10.4601  11.3999 C.ar           1 <1>                0.0000
      4 C4          -1.1402 -10.5866  11.5163 C.ar           1 <1>                0.0000
      5 N5          -0.3948 -10.8681  10.4646 N.ar           1 <1>                0.0000
      6 C6          -0.9254 -11.0402   9.2636 C.ar           1 <1>                0.0000
      7 N7          -0.1024 -11.3357   8.1830 N.pl3          1 <1>                0.0000
      8 C8           0.5500 -12.6445   8.0956 C.3            1 <1>                0.0000
      9 C9          -0.4788 -13.7458   8.3596 C.3            1 <1>                0.0000
     10 C10          0.2025 -15.1127   8.2683 C.3            1 <1>                0.0000
     11 C11          0.7964 -15.2942   6.8701 C.3            1 <1>                0.0000
     12 C12          1.8252 -14.1929   6.6060 C.3            1 <1>                0.0000
     13 C13          1.1439 -12.8261   6.6973 C.3            1 <1>                0.0000
     14 C14         -2.2992 -10.9331   9.0747 C.ar           1 <1>                0.0000
     15 H15         -4.8495  -9.4676   9.7632 H              1 <1>                0.0000
     16 H16         -4.9325 -11.1479   9.1819 H              1 <1>                0.0000
     17 H17         -5.0924 -10.7985  10.9199 H              1 <1>                0.0000
     18 H18         -3.1120 -10.2287  12.2662 H              1 <1>                0.0000
     19 H19         -0.6726 -10.4529  12.4807 H              1 <1>                0.0000
     20 H20          1.3452 -12.7045   8.8387 H              1 <1>                0.0000
     21 H21         -0.9019 -13.6165   9.3557 H              1 <1>                0.0000
     22 H22         -1.2740 -13.6859   7.6165 H              1 <1>                0.0000
     23 H23          0.9977 -15.1726   9.0114 H              1 <1>                0.0000
     24 H24         -0.5305 -15.8973   8.4563 H              1 <1>                0.0000
     25 H25          1.2817 -16.2680   6.8050 H              1 <1>                0.0000
     26 H26          0.0012 -15.2343   6.1269 H              1 <1>                0.0000
     27 H27          2.6204 -14.2529   7.3491 H              1 <1>                0.0000
     28 H28          2.2483 -14.3222   5.6098 H              1 <1>                0.0000
     29 H29          0.3487 -12.7660   5.9541 H              1 <1>                0.0000
     30 H30          1.8768 -12.0415   6.5091 H              1 <1>                0.0000
     31 H31         -2.7296 -11.0743   8.0943 H              1 <1>                0.0000
     32 H32          0.0399 -10.6753   7.4869 H              1 <1>                0.0000
@<TRIPOS>BOND
    1    1    2 1     
    2    1   15 1     
    3    1   16 1     
    4    1   17 1     
    5    2    3 ar    
    6    2   14 ar    
    7    3    4 ar    
    8    3   18 1     
    9    4    5 ar    
   10    4   19 1     
   11    5    6 ar    
   12    6    7 1     
   13    6   14 ar    
   14    7    8 1     
   15    7   32 1     
   16    8    9 1     
   17    8   13 1     
   18    8   20 1     
   19    9   10 1     
   20    9   21 1     
   21    9   22 1     
   22   10   11 1     
   23   10   23 1     
   24   10   24 1     
   25   11   12 1     
   26   11   25 1     
   27   11   26 1     
   28   12   13 1     
   29   12   27 1     
   30   12   28 1     
   31   13   29 1     
   32   13   30 1     
   33   14   31 1     
@<TRIPOS>SUBSTRUCTURE
      1 ****           1
@<TRIPOS>SET
DONOR_HYDROGENS      STATIC     ATOMS    <user>   **** ""
1 32
ATOM$RED        STATIC     ATOMS    COLORGROUP SYSTEM
1 32
@<TRIPOS>COMMENT
> <Gold.Version>
2022.2.0

> <Gold.Id.Protein>
3pbl|protein|mol2

> <Gold.Protein.RotatedTorsions>
[ 1303 1298 1297 1294 ] final  131.28 input  179.99 | X-H torsion
[ 2461 2456 2455 2452 ] final  -39.98 input   30.03 | X-H torsion
[ 2515 2510 2509 2506 ] final -105.96 input  -89.99 | X-H torsion
[ 3721 3712 3711 3710 ] final -159.70 input -179.91 | X-H torsion
[ 3841 3832 3831 3830 ] final  -98.56 input -179.91 | X-H torsion
[ 3767 3762 3761 3758 ] final   -6.19 input  -89.99 | X-H torsion
[ 2472 2467 2466 2463 ] final  -25.89 input  -89.97 | X-H torsion

> <Gold.Protein.ActiveResidues>
 VAL82   VAL86   LEU89   PHE106  VAL107  ASP110  VAL111  MET112  CYS114  THR115 
 CYS181  SER182  ILE183  PHE188  VAL189  ILE190  SER192  SER193  SER196  TRP342 
 PHE345  PHE346  HIS349  VAL350  TYR365  THR369  GLY372  TYR373 

> <Gold.Protein.RotatedAtoms>
    4.8261   -9.6058    4.9445 H   0  0  0  0  0  0  0  0  0  0  0  0  # atno 1303 bound_to 1298
    0.5156   -8.3278    7.1865 H   0  0  0  0  0  0  0  0  0  0  0  0  # atno 2461 bound_to 2456
   -3.6446   -4.9944    8.4485 H   0  0  0  0  0  0  0  0  0  0  0  0  # atno 2472 bound_to 2467
    2.7761   -9.1026    4.8035 H   0  0  0  0  0  0  0  0  0  0  0  0  # atno 2515 bound_to 2510
   -3.3377  -16.5339   13.8425 H   0  0  0  0  0  0  0  0  0  0  0  0  # atno 3721 bound_to 3712
   -5.3752  -22.6402   10.1897 H   0  0  0  0  0  0  0  0  0  0  0  0  # atno 3767 bound_to 3762
    1.9485  -19.5899    8.6244 H   0  0  0  0  0  0  0  0  0  0  0  0  # atno 3841 bound_to 3832
    3.4579  -10.0092    4.1497 LP  0  0  0  0  0  0  0  0  0  0  0  0  # atno 4297 bound_to 1298
    4.0779   -8.5062    3.9972 LP  0  0  0  0  0  0  0  0  0  0  0  0  # atno 4298 bound_to 1298
    1.1330   -9.2843    8.3575 LP  0  0  0  0  0  0  0  0  0  0  0  0  # atno 4299 bound_to 2456
    2.0890   -8.1959    7.6039 LP  0  0  0  0  0  0  0  0  0  0  0  0  # atno 4300 bound_to 2456
    2.0772   -8.3917    6.0965 LP  0  0  0  0  0  0  0  0  0  0  0  0  # atno 4301 bound_to 2510
    2.4432   -7.5044    4.7754 LP  0  0  0  0  0  0  0  0  0  0  0  0  # atno 4302 bound_to 2510
   -2.8671  -17.8926   13.1282 LP  0  0  0  0  0  0  0  0  0  0  0  0  # atno 4306 bound_to 3712
   -2.8072  -17.7450   14.7534 LP  0  0  0  0  0  0  0  0  0  0  0  0  # atno 4307 bound_to 3712
    3.1282  -20.6760    8.5547 LP  0  0  0  0  0  0  0  0  0  0  0  0  # atno 4314 bound_to 3832
    1.8503  -20.9000    9.5465 LP  0  0  0  0  0  0  0  0  0  0  0  0  # atno 4315 bound_to 3832
   -4.7631  -22.0022   11.5627 LP  0  0  0  0  0  0  0  0  0  0  0  0  # atno 4318 bound_to 3762
   -3.9894  -23.2327   10.8184 LP  0  0  0  0  0  0  0  0  0  0  0  0  # atno 4319 bound_to 3762
   -4.9168   -5.4618    9.3593 LP  0  0  0  0  0  0  0  0  0  0  0  0  # atno 4320 bound_to 2467
   -5.1553   -4.9373    7.8313 LP  0  0  0  0  0  0  0  0  0  0  0  0  # atno 4321 bound_to 2467

> <Gold.Score>
     Score     S(PLP)   S(hbond)     S(cho)   S(metal)  DE(clash)   DE(tors)     intcor
     48.07     -49.65       0.00       0.00       0.00       0.00       0.79       0.00

> <Gold.PLP.Fitness>
48.0665

> <Gold.PLP.PLP>
-49.6517

> <Gold.PLP.part.hbond>
-0.5644

> <Gold.PLP.part.metal>
0.0000

> <Gold.PLP.part.buried>
-3.3686

> <Gold.PLP.part.nonpolar>
-46.7197

> <Gold.PLP.part.repulsive>
0.0026

> <Gold.PLP.ligand.clash>
0.0000

> <Gold.PLP.ligand.torsion>
0.7926

> <Gold.PLP.Chemscore.Hbond>
0.0000

> <Gold.PLP.Chemscore.CHOScore>
0.0000

> <Gold.PLP.Chemscore.Metal>
0.0000

> <Gold.PLP.Chemscore.Internal.Correction>
0.0000

