#       Name:                EN300-02904_i001
#       Creating user name   fsindt
#       Creation time:       Tue Feb 28 08:10:28 2023


#       File generated by GOLD software.
#

@<TRIPOS>MOLECULE
EN300-02904_i001|amine_7|mol2|4351|dock2
    32    33     1
SMALL
USER_CHARGES


@<TRIPOS>ATOM
      1 C1          -1.7012 -11.6085  10.5094 C.3            1 <1>                0.0000
      2 C2          -0.7312 -12.5761   9.8817 C.ar           1 <1>                0.0000
      3 C3          -0.4049 -12.4812   8.5356 C.ar           1 <1>                0.0000
      4 C4           0.4877 -13.3828   7.9909 C.ar           1 <1>                0.0000
      5 N5           1.0308 -14.3294   8.7325 N.ar           1 <1>                0.0000
      6 C6           0.7452 -14.4527  10.0196 C.ar           1 <1>                0.0000
      7 N7           1.3406 -15.4649  10.7634 N.pl3          1 <1>                0.0000
      8 C8           1.1890 -15.4893  12.2204 C.3            1 <1>                0.0000
      9 C9          -0.2390 -15.9067  12.5775 C.3            1 <1>                0.0000
     10 C10         -0.3975 -15.9322  14.0991 C.3            1 <1>                0.0000
     11 C11          0.5916 -16.9341  14.6981 C.3            1 <1>                0.0000
     12 C12          2.0196 -16.5167  14.3409 C.3            1 <1>                0.0000
     13 C13          2.1780 -16.4912  12.8194 C.3            1 <1>                0.0000
     14 C14         -0.1414 -13.5753  10.6352 C.ar           1 <1>                0.0000
     15 H15         -2.7134 -12.0046  10.4277 H              1 <1>                0.0000
     16 H16         -1.4485 -11.4714  11.5608 H              1 <1>                0.0000
     17 H17         -1.6433 -10.6500   9.9938 H              1 <1>                0.0000
     18 H18         -0.8450 -11.7101   7.9206 H              1 <1>                0.0000
     19 H19          0.7443 -13.3126   6.9441 H              1 <1>                0.0000
     20 H20          1.3887 -14.4963  12.6232 H              1 <1>                0.0000
     21 H21         -0.9436 -15.1930  12.1507 H              1 <1>                0.0000
     22 H22         -0.4388 -16.8997  12.1747 H              1 <1>                0.0000
     23 H23         -0.1977 -14.9393  14.5018 H              1 <1>                0.0000
     24 H24         -1.4148 -16.2297  14.3535 H              1 <1>                0.0000
     25 H25          0.4787 -16.9524  15.7820 H              1 <1>                0.0000
     26 H26          0.3918 -17.9271  14.2953 H              1 <1>                0.0000
     27 H27          2.2193 -15.5237  14.7438 H              1 <1>                0.0000
     28 H28          2.7243 -17.2304  14.7677 H              1 <1>                0.0000
     29 H29          1.9783 -17.4841  12.4166 H              1 <1>                0.0000
     30 H30          3.1954 -16.1938  12.5650 H              1 <1>                0.0000
     31 H31         -0.3725 -13.6777  11.6852 H              1 <1>                0.0000
     32 H32          1.8566 -16.1548  10.3178 H              1 <1>                0.0000
@<TRIPOS>BOND
    1    1    2 1     
    2    1   15 1     
    3    1   16 1     
    4    1   17 1     
    5    2    3 ar    
    6    2   14 ar    
    7    3    4 ar    
    8    3   18 1     
    9    4    5 ar    
   10    4   19 1     
   11    5    6 ar    
   12    6    7 1     
   13    6   14 ar    
   14    7    8 1     
   15    7   32 1     
   16    8    9 1     
   17    8   13 1     
   18    8   20 1     
   19    9   10 1     
   20    9   21 1     
   21    9   22 1     
   22   10   11 1     
   23   10   23 1     
   24   10   24 1     
   25   11   12 1     
   26   11   25 1     
   27   11   26 1     
   28   12   13 1     
   29   12   27 1     
   30   12   28 1     
   31   13   29 1     
   32   13   30 1     
   33   14   31 1     
@<TRIPOS>SUBSTRUCTURE
      1 ****           1
@<TRIPOS>SET
DONOR_HYDROGENS      STATIC     ATOMS    <user>   **** ""
1 32
ATOM$RED        STATIC     ATOMS    COLORGROUP SYSTEM
1 32
@<TRIPOS>COMMENT
> <Gold.Version>
2022.2.0

> <Gold.Id.Protein>
3pbl|protein|mol2

> <Gold.Protein.RotatedTorsions>
[ 1303 1298 1297 1294 ] final  143.96 input  179.99 | X-H torsion
[ 2461 2456 2455 2452 ] final  -42.67 input   30.03 | X-H torsion
[ 2515 2510 2509 2506 ] final  117.58 input  -89.99 | X-H torsion
[ 3721 3712 3711 3710 ] final  134.01 input -179.91 | X-H torsion
[ 3841 3832 3831 3830 ] final   22.04 input -179.91 | X-H torsion
[ 3767 3762 3761 3758 ] final -107.03 input  -89.99 | X-H torsion
[ 2472 2467 2466 2463 ] final   -6.29 input  -89.97 | X-H torsion

> <Gold.Protein.ActiveResidues>
 VAL82   VAL86   LEU89   PHE106  VAL107  ASP110  VAL111  MET112  CYS114  THR115 
 CYS181  SER182  ILE183  PHE188  VAL189  ILE190  SER192  SER193  SER196  TRP342 
 PHE345  PHE346  HIS349  VAL350  TYR365  THR369  GLY372  TYR373 

> <Gold.Protein.RotatedAtoms>
    4.8874   -9.4097    4.9110 H   0  0  0  0  0  0  0  0  0  0  0  0  # atno 1303 bound_to 1298
    0.4904   -8.3577    7.2076 H   0  0  0  0  0  0  0  0  0  0  0  0  # atno 2461 bound_to 2456
   -3.7445   -4.9008    8.1583 H   0  0  0  0  0  0  0  0  0  0  0  0  # atno 2472 bound_to 2467
    2.0376   -8.1279    6.0560 H   0  0  0  0  0  0  0  0  0  0  0  0  # atno 2515 bound_to 2510
   -3.1077  -17.0529   13.0844 H   0  0  0  0  0  0  0  0  0  0  0  0  # atno 3721 bound_to 3712
   -5.0224  -21.9239   11.4043 H   0  0  0  0  0  0  0  0  0  0  0  0  # atno 3767 bound_to 3762
    1.9672  -20.7159    9.6210 H   0  0  0  0  0  0  0  0  0  0  0  0  # atno 3841 bound_to 3832
    3.5690  -10.1331    4.2749 LP  0  0  0  0  0  0  0  0  0  0  0  0  # atno 4297 bound_to 1298
    3.9055   -8.5785    3.9055 LP  0  0  0  0  0  0  0  0  0  0  0  0  # atno 4298 bound_to 1298
    1.1758   -9.2800    8.3681 LP  0  0  0  0  0  0  0  0  0  0  0  0  # atno 4299 bound_to 2456
    2.0713   -8.1704    7.5723 LP  0  0  0  0  0  0  0  0  0  0  0  0  # atno 4300 bound_to 2456
    2.5571   -7.6548    4.5822 LP  0  0  0  0  0  0  0  0  0  0  0  0  # atno 4301 bound_to 2510
    2.7022   -9.2165    5.0367 LP  0  0  0  0  0  0  0  0  0  0  0  0  # atno 4302 bound_to 2510
   -2.6079  -18.1946   14.0965 LP  0  0  0  0  0  0  0  0  0  0  0  0  # atno 4306 bound_to 3712
   -3.3318  -16.8438   14.6604 LP  0  0  0  0  0  0  0  0  0  0  0  0  # atno 4307 bound_to 3712
    1.8295  -19.6438    8.4346 LP  0  0  0  0  0  0  0  0  0  0  0  0  # atno 4314 bound_to 3832
    3.1274  -20.6315    8.5153 LP  0  0  0  0  0  0  0  0  0  0  0  0  # atno 4315 bound_to 3832
   -3.9131  -23.0779   11.0808 LP  0  0  0  0  0  0  0  0  0  0  0  0  # atno 4318 bound_to 3762
   -5.1920  -22.8729   10.0862 LP  0  0  0  0  0  0  0  0  0  0  0  0  # atno 4319 bound_to 3762
   -4.6043   -5.4535    9.4317 LP  0  0  0  0  0  0  0  0  0  0  0  0  # atno 4320 bound_to 2467
   -5.3679   -5.0392    8.0490 LP  0  0  0  0  0  0  0  0  0  0  0  0  # atno 4321 bound_to 2467

> <Gold.Score>
     Score     S(PLP)   S(hbond)     S(cho)   S(metal)  DE(clash)   DE(tors)     intcor
     49.33     -46.65       1.00       0.00       0.00       0.00       0.16       0.00

> <Gold.PLP.Fitness>
49.3331

> <Gold.PLP.PLP>
-46.6544

> <Gold.PLP.part.hbond>
-1.0000

> <Gold.PLP.part.metal>
0.0000

> <Gold.PLP.part.buried>
-4.4670

> <Gold.PLP.part.nonpolar>
-41.7000

> <Gold.PLP.part.repulsive>
0.1101

> <Gold.PLP.ligand.clash>
0.0000

> <Gold.PLP.ligand.torsion>
0.1607

> <Gold.PLP.Chemscore.Hbond>
1.0000

> <Gold.PLP.Chemscore.CHOScore>
0.0000

> <Gold.PLP.Chemscore.Metal>
0.0000

> <Gold.Chemscore.Hbonds>
donor molecule, donor type, donor heavy atom, donor atom, acceptor molecule, acceptor atom, score
      L1  H     7    32       P1  1227  1.00

> <Gold.PLP.Chemscore.Internal.Correction>
0.0000

