#       Name:                EN300-02904_i001
#       Creating user name   fsindt
#       Creation time:       Tue Feb 28 08:10:28 2023


#       File generated by GOLD software.
#

@<TRIPOS>MOLECULE
EN300-02904_i001|amine_7|mol2|4351|dock4
    32    33     1
SMALL
USER_CHARGES


@<TRIPOS>ATOM
      1 C1           1.1007 -12.1572   6.2038 C.3            1 <1>                0.0000
      2 C2           0.8035 -13.2816   7.1623 C.ar           1 <1>                0.0000
      3 C3           0.1847 -14.4441   6.7228 C.ar           1 <1>                0.0000
      4 C4          -0.0732 -15.4559   7.6260 C.ar           1 <1>                0.0000
      5 N5           0.2601 -15.3302   8.8964 N.ar           1 <1>                0.0000
      6 C6           0.8515 -14.2374   9.3542 C.ar           1 <1>                0.0000
      7 N7           1.1853 -14.1473  10.7006 N.pl3          1 <1>                0.0000
      8 C8           0.9886 -15.3004  11.5826 C.3            1 <1>                0.0000
      9 C9           2.2965 -15.6132  12.3123 C.3            1 <1>                0.0000
     10 C10          2.0911 -16.8175  13.2335 C.3            1 <1>                0.0000
     11 C11          1.0003 -16.4964  14.2571 C.3            1 <1>                0.0000
     12 C12         -0.3077 -16.1835  13.5274 C.3            1 <1>                0.0000
     13 C13         -0.1023 -14.9793  12.6063 C.3            1 <1>                0.0000
     14 C14          1.1464 -13.1809   8.4988 C.ar           1 <1>                0.0000
     15 H15          0.2531 -11.4726   6.1730 H              1 <1>                0.0000
     16 H16          1.9891 -11.6209   6.5372 H              1 <1>                0.0000
     17 H17          1.2747 -12.5650   5.2081 H              1 <1>                0.0000
     18 H18         -0.0924 -14.5557   5.6849 H              1 <1>                0.0000
     19 H19         -0.5544 -16.3620   7.2883 H              1 <1>                0.0000
     20 H20          0.6877 -16.1643  10.9898 H              1 <1>                0.0000
     21 H21          3.0736 -15.8420  11.5831 H              1 <1>                0.0000
     22 H22          2.5974 -14.7494  12.9052 H              1 <1>                0.0000
     23 H23          1.7902 -17.6812  12.6407 H              1 <1>                0.0000
     24 H24          3.0229 -17.0403  13.7534 H              1 <1>                0.0000
     25 H25          0.8540 -17.3542  14.9134 H              1 <1>                0.0000
     26 H26          1.3011 -15.6326  14.8500 H              1 <1>                0.0000
     27 H27         -0.6085 -17.0474  12.9346 H              1 <1>                0.0000
     28 H28         -1.0849 -15.9548  14.2566 H              1 <1>                0.0000
     29 H29          0.1985 -14.1155  13.1990 H              1 <1>                0.0000
     30 H30         -1.0341 -14.7565  12.0864 H              1 <1>                0.0000
     31 H31          1.6292 -12.2909   8.8744 H              1 <1>                0.0000
     32 H32          1.5483 -13.3211  11.0560 H              1 <1>                0.0000
@<TRIPOS>BOND
    1    1    2 1     
    2    1   15 1     
    3    1   16 1     
    4    1   17 1     
    5    2    3 ar    
    6    2   14 ar    
    7    3    4 ar    
    8    3   18 1     
    9    4    5 ar    
   10    4   19 1     
   11    5    6 ar    
   12    6    7 1     
   13    6   14 ar    
   14    7    8 1     
   15    7   32 1     
   16    8    9 1     
   17    8   13 1     
   18    8   20 1     
   19    9   10 1     
   20    9   21 1     
   21    9   22 1     
   22   10   11 1     
   23   10   23 1     
   24   10   24 1     
   25   11   12 1     
   26   11   25 1     
   27   11   26 1     
   28   12   13 1     
   29   12   27 1     
   30   12   28 1     
   31   13   29 1     
   32   13   30 1     
   33   14   31 1     
@<TRIPOS>SUBSTRUCTURE
      1 ****           1
@<TRIPOS>SET
DONOR_HYDROGENS      STATIC     ATOMS    <user>   **** ""
1 32
ATOM$RED        STATIC     ATOMS    COLORGROUP SYSTEM
1 32
@<TRIPOS>COMMENT
> <Gold.Version>
2022.2.0

> <Gold.Id.Protein>
3pbl|protein|mol2

> <Gold.Protein.RotatedTorsions>
[ 1303 1298 1297 1294 ] final  -48.42 input  179.99 | X-H torsion
[ 2461 2456 2455 2452 ] final  -35.99 input   30.03 | X-H torsion
[ 2515 2510 2509 2506 ] final  -62.72 input  -89.99 | X-H torsion
[ 3721 3712 3711 3710 ] final -131.68 input -179.91 | X-H torsion
[ 3841 3832 3831 3830 ] final -132.42 input -179.91 | X-H torsion
[ 3767 3762 3761 3758 ] final   68.69 input  -89.99 | X-H torsion
[ 2472 2467 2466 2463 ] final   -5.24 input  -89.97 | X-H torsion

> <Gold.Protein.ActiveResidues>
 VAL82   VAL86   LEU89   PHE106  VAL107  ASP110  VAL111  MET112  CYS114  THR115 
 CYS181  SER182  ILE183  PHE188  VAL189  ILE190  SER192  SER193  SER196  TRP342 
 PHE345  PHE346  HIS349  VAL350  TYR365  THR369  GLY372  TYR373 

> <Gold.Protein.RotatedAtoms>
    3.4131   -9.1460    3.7842 H   0  0  0  0  0  0  0  0  0  0  0  0  # atno 1303 bound_to 1298
    0.5557   -8.2848    7.1576 H   0  0  0  0  0  0  0  0  0  0  0  0  # atno 2461 bound_to 2456
   -3.7528   -4.8964    8.1437 H   0  0  0  0  0  0  0  0  0  0  0  0  # atno 2472 bound_to 2467
    2.8275   -8.5428    4.3957 H   0  0  0  0  0  0  0  0  0  0  0  0  # atno 2515 bound_to 2510
   -3.2720  -16.5848   14.2536 H   0  0  0  0  0  0  0  0  0  0  0  0  # atno 3721 bound_to 3712
   -4.4513  -23.3147   10.2679 H   0  0  0  0  0  0  0  0  0  0  0  0  # atno 3767 bound_to 3762
    2.3936  -19.6388    8.3926 H   0  0  0  0  0  0  0  0  0  0  0  0  # atno 3841 bound_to 3832
    4.7814   -8.7351    4.5750 LP  0  0  0  0  0  0  0  0  0  0  0  0  # atno 4297 bound_to 1298
    4.1679  -10.2402    4.7326 LP  0  0  0  0  0  0  0  0  0  0  0  0  # atno 4298 bound_to 1298
    1.0701   -9.2880    8.3392 LP  0  0  0  0  0  0  0  0  0  0  0  0  # atno 4299 bound_to 2456
    2.1117   -8.2352    7.6512 LP  0  0  0  0  0  0  0  0  0  0  0  0  # atno 4300 bound_to 2456
    2.3052   -9.0080    5.8710 LP  0  0  0  0  0  0  0  0  0  0  0  0  # atno 4301 bound_to 2510
    2.1638   -7.4482    5.4090 LP  0  0  0  0  0  0  0  0  0  0  0  0  # atno 4302 bound_to 2510
   -3.0934  -17.5233   12.9631 LP  0  0  0  0  0  0  0  0  0  0  0  0  # atno 4306 bound_to 3712
   -2.6567  -18.0556   14.4439 LP  0  0  0  0  0  0  0  0  0  0  0  0  # atno 4307 bound_to 3712
    2.9723  -21.0233    8.9622 LP  0  0  0  0  0  0  0  0  0  0  0  0  # atno 4314 bound_to 3832
    1.4921  -20.4961    9.4067 LP  0  0  0  0  0  0  0  0  0  0  0  0  # atno 4315 bound_to 3832
   -5.4959  -22.1328   10.6910 LP  0  0  0  0  0  0  0  0  0  0  0  0  # atno 4318 bound_to 3762
   -4.1801  -22.4278   11.6120 LP  0  0  0  0  0  0  0  0  0  0  0  0  # atno 4319 bound_to 3762
   -4.5871   -5.4520    9.4328 LP  0  0  0  0  0  0  0  0  0  0  0  0  # atno 4320 bound_to 2467
   -5.3769   -5.0451    8.0626 LP  0  0  0  0  0  0  0  0  0  0  0  0  # atno 4321 bound_to 2467

> <Gold.Score>
     Score     S(PLP)   S(hbond)     S(cho)   S(metal)  DE(clash)   DE(tors)     intcor
     47.50     -47.60       0.00       0.00       0.00       0.00       0.05       0.00

> <Gold.PLP.Fitness>
47.4987

> <Gold.PLP.PLP>
-47.6007

> <Gold.PLP.part.hbond>
0.0000

> <Gold.PLP.part.metal>
0.0000

> <Gold.PLP.part.buried>
-2.6477

> <Gold.PLP.part.nonpolar>
-46.2896

> <Gold.PLP.part.repulsive>
0.1119

> <Gold.PLP.ligand.clash>
0.0000

> <Gold.PLP.ligand.torsion>
0.0510

> <Gold.PLP.Chemscore.Hbond>
0.0000

> <Gold.PLP.Chemscore.CHOScore>
0.0000

> <Gold.PLP.Chemscore.Metal>
0.0000

> <Gold.PLP.Chemscore.Internal.Correction>
0.0000

