#       Name:                EN300-02904_i001
#       Creating user name   fsindt
#       Creation time:       Tue Feb 28 08:10:27 2023


#       File generated by GOLD software.
#

@<TRIPOS>MOLECULE
EN300-02904_i001
    32    33     1
SMALL
USER_CHARGES


@<TRIPOS>ATOM
      1 C1           3.3926   2.1687  -0.4836 C.3            1 <1>                0.0000
      2 C2           3.0663   0.7261  -0.1946 C.ar           1 <1>                0.0000
      3 C3           4.0750  -0.1908   0.0688 C.ar           1 <1>                0.0000
      4 C4           3.7428  -1.5051   0.3304 C.ar           1 <1>                0.0000
      5 N5           2.4830  -1.8971   0.3322 N.ar           1 <1>                0.0000
      6 C6           1.4928  -1.0532   0.0857 C.ar           1 <1>                0.0000
      7 N7           0.1798  -1.5093   0.0978 N.pl3          1 <1>                0.0000
      8 C8          -0.9206  -0.5812  -0.1740 C.3            1 <1>                0.0000
      9 C9          -2.1237  -1.3597  -0.7102 C.3            1 <1>                0.0000
     10 C10         -3.2730  -0.3904  -0.9941 C.3            1 <1>                0.0000
     11 C11         -3.6653   0.3280   0.2985 C.3            1 <1>                0.0000
     12 C12         -2.4622   1.1065   0.8347 C.3            1 <1>                0.0000
     13 C13         -1.3130   0.1372   1.1186 C.3            1 <1>                0.0000
     14 C14          1.7545   0.2868  -0.1801 C.ar           1 <1>                0.0000
     15 H15          3.5369   2.3007  -1.5559 H              1 <1>                0.0000
     16 H16          2.5714   2.8014  -0.1469 H              1 <1>                0.0000
     17 H17          4.3054   2.4473   0.0429 H              1 <1>                0.0000
     18 H18          5.1091   0.1208   0.0688 H              1 <1>                0.0000
     19 H19          4.5244  -2.2216   0.5358 H              1 <1>                0.0000
     20 H20         -0.6028   0.1521  -0.9152 H              1 <1>                0.0000
     21 H21         -1.8442  -1.8714  -1.6310 H              1 <1>                0.0000
     22 H22         -2.4416  -2.0930   0.0310 H              1 <1>                0.0000
     23 H23         -2.9551   0.3429  -1.7352 H              1 <1>                0.0000
     24 H24         -4.1301  -0.9450  -1.3760 H              1 <1>                0.0000
     25 H25         -4.4841   1.0185   0.0963 H              1 <1>                0.0000
     26 H26         -3.9832  -0.4052   1.0397 H              1 <1>                0.0000
     27 H27         -2.1444   1.8398   0.0935 H              1 <1>                0.0000
     28 H28         -2.7417   1.6183   1.7556 H              1 <1>                0.0000
     29 H29         -1.6308  -0.5960   1.8598 H              1 <1>                0.0000
     30 H30         -0.4559   0.6918   1.5006 H              1 <1>                0.0000
     31 H31          0.9452   0.9734  -0.3804 H              1 <1>                0.0000
     32 H32         -0.0078  -2.4422   0.2863 H              1 <1>                0.0000
@<TRIPOS>BOND
    1    1    2 1     
    2    1   15 1     
    3    1   16 1     
    4    1   17 1     
    5    2    3 ar    
    6    2   14 ar    
    7    3    4 ar    
    8    3   18 1     
    9    4    5 ar    
   10    4   19 1     
   11    5    6 ar    
   12    6    7 1     
   13    6   14 ar    
   14    7    8 1     
   15    7   32 1     
   16    8    9 1     
   17    8   13 1     
   18    8   20 1     
   19    9   10 1     
   20    9   21 1     
   21    9   22 1     
   22   10   11 1     
   23   10   23 1     
   24   10   24 1     
   25   11   12 1     
   26   11   25 1     
   27   11   26 1     
   28   12   13 1     
   29   12   27 1     
   30   12   28 1     
   31   13   29 1     
   32   13   30 1     
   33   14   31 1     
@<TRIPOS>SUBSTRUCTURE
      1 ****           1
@<TRIPOS>SET
DONOR_HYDROGENS      STATIC     ATOMS    <user>   **** ""
1 32
ATOM$RED        STATIC     ATOMS    COLORGROUP SYSTEM
1 32
