#       Name:                EN300-02904_i001
#       Creating user name   fsindt
#       Creation time:       Tue Feb 28 08:10:34 2023


#       File generated by GOLD software.
#

@<TRIPOS>MOLECULE
EN300-02904_i001|amine_7|mol2|4351|dock16
    32    33     1
SMALL
USER_CHARGES


@<TRIPOS>ATOM
      1 C1          -5.4335 -11.1885   9.8663 C.3            1 <1>                0.0000
      2 C2          -3.9603 -10.9030  10.0046 C.ar           1 <1>                0.0000
      3 C3          -3.4806  -9.6016   9.9428 C.ar           1 <1>                0.0000
      4 C4          -2.1253  -9.3734  10.0737 C.ar           1 <1>                0.0000
      5 N5          -1.2850 -10.3743  10.2556 N.ar           1 <1>                0.0000
      6 C6          -1.7034 -11.6290  10.3202 C.ar           1 <1>                0.0000
      7 N7          -0.7831 -12.6529  10.5130 N.pl3          1 <1>                0.0000
      8 C8           0.2746 -12.8824   9.5257 C.3            1 <1>                0.0000
      9 C9           0.5950 -14.3771   9.4598 C.3            1 <1>                0.0000
     10 C10          1.6997 -14.6170   8.4287 C.3            1 <1>                0.0000
     11 C11          1.2285 -14.1353   7.0551 C.3            1 <1>                0.0000
     12 C12          0.9082 -12.6406   7.1210 C.3            1 <1>                0.0000
     13 C13         -0.1965 -12.4008   8.1520 C.3            1 <1>                0.0000
     14 C14         -3.0559 -11.9312  10.2019 C.ar           1 <1>                0.0000
     15 H15         -5.6756 -11.3474   8.8154 H              1 <1>                0.0000
     16 H16         -5.6853 -12.0827  10.4364 H              1 <1>                0.0000
     17 H17         -6.0050 -10.3420  10.2468 H              1 <1>                0.0000
     18 H18         -4.1608  -8.7760   9.7935 H              1 <1>                0.0000
     19 H19         -1.7479  -8.3625  10.0262 H              1 <1>                0.0000
     20 H20          1.1691 -12.3317   9.8167 H              1 <1>                0.0000
     21 H21          0.9306 -14.7202  10.4383 H              1 <1>                0.0000
     22 H22         -0.2995 -14.9279   9.1687 H              1 <1>                0.0000
     23 H23          2.5941 -14.0662   8.7197 H              1 <1>                0.0000
     24 H24          1.9278 -15.6818   8.3817 H              1 <1>                0.0000
     25 H25          2.0155 -14.3062   6.3205 H              1 <1>                0.0000
     26 H26          0.3341 -14.6861   6.7640 H              1 <1>                0.0000
     27 H27          1.8027 -12.0899   7.4120 H              1 <1>                0.0000
     28 H28          0.5725 -12.2974   6.1424 H              1 <1>                0.0000
     29 H29         -1.0910 -12.9515   7.8610 H              1 <1>                0.0000
     30 H30         -0.4247 -11.3360   8.1990 H              1 <1>                0.0000
     31 H31         -3.3947 -12.9553  10.2553 H              1 <1>                0.0000
     32 H32         -0.8414 -13.2153  11.3011 H              1 <1>                0.0000
@<TRIPOS>BOND
    1    1    2 1     
    2    1   15 1     
    3    1   16 1     
    4    1   17 1     
    5    2    3 ar    
    6    2   14 ar    
    7    3    4 ar    
    8    3   18 1     
    9    4    5 ar    
   10    4   19 1     
   11    5    6 ar    
   12    6    7 1     
   13    6   14 ar    
   14    7    8 1     
   15    7   32 1     
   16    8    9 1     
   17    8   13 1     
   18    8   20 1     
   19    9   10 1     
   20    9   21 1     
   21    9   22 1     
   22   10   11 1     
   23   10   23 1     
   24   10   24 1     
   25   11   12 1     
   26   11   25 1     
   27   11   26 1     
   28   12   13 1     
   29   12   27 1     
   30   12   28 1     
   31   13   29 1     
   32   13   30 1     
   33   14   31 1     
@<TRIPOS>SUBSTRUCTURE
      1 ****           1
@<TRIPOS>SET
DONOR_HYDROGENS      STATIC     ATOMS    <user>   **** ""
1 32
ATOM$RED        STATIC     ATOMS    COLORGROUP SYSTEM
1 32
@<TRIPOS>COMMENT
> <Gold.Version>
2022.2.0

> <Gold.Id.Protein>
3pbl|protein|mol2

> <Gold.Protein.RotatedTorsions>
[ 1303 1298 1297 1294 ] final  126.57 input  179.99 | X-H torsion
[ 2461 2456 2455 2452 ] final -178.00 input   30.03 | X-H torsion
[ 2515 2510 2509 2506 ] final  -81.01 input  -89.99 | X-H torsion
[ 3721 3712 3711 3710 ] final  -48.65 input -179.91 | X-H torsion
[ 3841 3832 3831 3830 ] final -107.36 input -179.91 | X-H torsion
[ 3767 3762 3761 3758 ] final   40.71 input  -89.99 | X-H torsion
[ 2472 2467 2466 2463 ] final   65.68 input  -89.97 | X-H torsion

> <Gold.Protein.ActiveResidues>
 VAL82   VAL86   LEU89   PHE106  VAL107  ASP110  VAL111  MET112  CYS114  THR115 
 CYS181  SER182  ILE183  PHE188  VAL189  ILE190  SER192  SER193  SER196  TRP342 
 PHE345  PHE346  HIS349  VAL350  TYR365  THR369  GLY372  TYR373 

> <Gold.Protein.RotatedAtoms>
    4.7943   -9.6763    4.9498 H   0  0  0  0  0  0  0  0  0  0  0  0  # atno 1303 bound_to 1298
    1.4196   -9.2275    8.4008 H   0  0  0  0  0  0  0  0  0  0  0  0  # atno 2461 bound_to 2456
   -4.7352   -4.8327    7.6670 H   0  0  0  0  0  0  0  0  0  0  0  0  # atno 2472 bound_to 2467
    2.8332   -8.8147    4.5212 H   0  0  0  0  0  0  0  0  0  0  0  0  # atno 2515 bound_to 2510
   -2.7190  -17.4778   14.7177 H   0  0  0  0  0  0  0  0  0  0  0  0  # atno 3721 bound_to 3712
   -4.8380  -23.1541   10.0871 H   0  0  0  0  0  0  0  0  0  0  0  0  # atno 3767 bound_to 3762
    2.0569  -19.5797    8.5482 H   0  0  0  0  0  0  0  0  0  0  0  0  # atno 3841 bound_to 3832
    3.4247   -9.9549    4.1055 LP  0  0  0  0  0  0  0  0  0  0  0  0  # atno 4297 bound_to 1298
    4.1429   -8.4900    4.0361 LP  0  0  0  0  0  0  0  0  0  0  0  0  # atno 4298 bound_to 1298
    1.9374   -8.0450    7.4003 LP  0  0  0  0  0  0  0  0  0  0  0  0  # atno 4299 bound_to 2456
    0.3808   -8.5358    7.3472 LP  0  0  0  0  0  0  0  0  0  0  0  0  # atno 4300 bound_to 2456
    2.1914   -8.7756    6.0220 LP  0  0  0  0  0  0  0  0  0  0  0  0  # atno 4301 bound_to 2510
    2.2720   -7.4086    5.1324 LP  0  0  0  0  0  0  0  0  0  0  0  0  # atno 4302 bound_to 2510
   -3.5647  -16.5892   13.6817 LP  0  0  0  0  0  0  0  0  0  0  0  0  # atno 4306 bound_to 3712
   -2.8238  -17.9587   13.1895 LP  0  0  0  0  0  0  0  0  0  0  0  0  # atno 4307 bound_to 3712
    3.1156  -20.7811    8.6566 LP  0  0  0  0  0  0  0  0  0  0  0  0  # atno 4314 bound_to 3832
    1.7377  -20.8066    9.5326 LP  0  0  0  0  0  0  0  0  0  0  0  0  # atno 4315 bound_to 3832
   -5.3303  -21.9500   11.0744 LP  0  0  0  0  0  0  0  0  0  0  0  0  # atno 4318 bound_to 3762
   -3.9591  -22.7712   11.4092 LP  0  0  0  0  0  0  0  0  0  0  0  0  # atno 4319 bound_to 3762
   -3.6911   -5.1544    8.8805 LP  0  0  0  0  0  0  0  0  0  0  0  0  # atno 4320 bound_to 2467
   -5.2906   -5.4064    9.0914 LP  0  0  0  0  0  0  0  0  0  0  0  0  # atno 4321 bound_to 2467

> <Gold.Score>
     Score     S(PLP)   S(hbond)     S(cho)   S(metal)  DE(clash)   DE(tors)     intcor
     53.12     -52.37       0.00       0.88       0.00       0.00       0.94       0.00

> <Gold.PLP.Fitness>
53.1201

> <Gold.PLP.PLP>
-52.3683

> <Gold.PLP.part.hbond>
0.0000

> <Gold.PLP.part.metal>
0.0000

> <Gold.PLP.part.buried>
-0.2473

> <Gold.PLP.part.nonpolar>
-52.2272

> <Gold.PLP.part.repulsive>
0.0745

> <Gold.PLP.ligand.clash>
0.0000

> <Gold.PLP.ligand.torsion>
0.9415

> <Gold.PLP.Chemscore.Hbond>
0.0000

> <Gold.PLP.Chemscore.CHOScore>
0.8782

> <Gold.PLP.Chemscore.Metal>
0.0000

> <Gold.Chemscore.Hbonds>
donor molecule, donor type, donor heavy atom, donor atom, acceptor molecule, acceptor atom, score
      L1  C     4    19       P1  2398  0.88

> <Gold.PLP.Chemscore.Internal.Correction>
0.0000

