#       Name:                EN300-02904_i001
#       Creating user name   fsindt
#       Creation time:       Tue Feb 28 08:10:36 2023


#       File generated by GOLD software.
#

@<TRIPOS>MOLECULE
EN300-02904_i001|amine_7|mol2|4351|dock19
    32    33     1
SMALL
USER_CHARGES


@<TRIPOS>ATOM
      1 C1          -0.4807 -16.6559  14.9945 C.3            1 <1>                0.0000
      2 C2           0.3162 -16.1739  13.8097 C.ar           1 <1>                0.0000
      3 C3           1.6655 -16.4786  13.6905 C.ar           1 <1>                0.0000
      4 C4           2.3673 -16.0225  12.5925 C.ar           1 <1>                0.0000
      5 N5           1.7724 -15.3030  11.6601 N.ar           1 <1>                0.0000
      6 C6           0.4876 -14.9916  11.7377 C.ar           1 <1>                0.0000
      7 N7          -0.0987 -14.2313  10.7325 N.pl3          1 <1>                0.0000
      8 C8           0.6321 -13.9719   9.4896 C.3            1 <1>                0.0000
      9 C9           0.1773 -14.9612   8.4147 C.3            1 <1>                0.0000
     10 C10          0.9406 -14.6904   7.1166 C.3            1 <1>                0.0000
     11 C11          0.6578 -13.2619   6.6473 C.3            1 <1>                0.0000
     12 C12          1.1126 -12.2725   7.7222 C.3            1 <1>                0.0000
     13 C13          0.3494 -12.5434   9.0203 C.3            1 <1>                0.0000
     14 C14         -0.2815 -15.4228  12.8135 C.ar           1 <1>                0.0000
     15 H15         -0.4337 -15.9127  15.7904 H              1 <1>                0.0000
     16 H16         -1.5188 -16.8051  14.6976 H              1 <1>                0.0000
     17 H17         -0.0661 -17.5983  15.3522 H              1 <1>                0.0000
     18 H18          2.1611 -17.0663  14.4490 H              1 <1>                0.0000
     19 H19          3.4172 -16.2572  12.4958 H              1 <1>                0.0000
     20 H20          1.7012 -14.0919   9.6648 H              1 <1>                0.0000
     21 H21          0.3787 -15.9789   8.7490 H              1 <1>                0.0000
     22 H22         -0.8918 -14.8412   8.2394 H              1 <1>                0.0000
     23 H23          2.0096 -14.8103   7.2919 H              1 <1>                0.0000
     24 H24          0.6165 -15.3951   6.3508 H              1 <1>                0.0000
     25 H25          1.2015 -13.0689   5.7225 H              1 <1>                0.0000
     26 H26         -0.4113 -13.1418   6.4720 H              1 <1>                0.0000
     27 H27          2.1817 -12.3925   7.8975 H              1 <1>                0.0000
     28 H28          0.9112 -11.2548   7.3879 H              1 <1>                0.0000
     29 H29         -0.7197 -12.4233   8.8451 H              1 <1>                0.0000
     30 H30          0.6733 -11.8385   9.7861 H              1 <1>                0.0000
     31 H31         -1.3292 -15.1678  12.8743 H              1 <1>                0.0000
     32 H32         -0.9916 -13.8725  10.8541 H              1 <1>                0.0000
@<TRIPOS>BOND
    1    1    2 1     
    2    1   15 1     
    3    1   16 1     
    4    1   17 1     
    5    2    3 ar    
    6    2   14 ar    
    7    3    4 ar    
    8    3   18 1     
    9    4    5 ar    
   10    4   19 1     
   11    5    6 ar    
   12    6    7 1     
   13    6   14 ar    
   14    7    8 1     
   15    7   32 1     
   16    8    9 1     
   17    8   13 1     
   18    8   20 1     
   19    9   10 1     
   20    9   21 1     
   21    9   22 1     
   22   10   11 1     
   23   10   23 1     
   24   10   24 1     
   25   11   12 1     
   26   11   25 1     
   27   11   26 1     
   28   12   13 1     
   29   12   27 1     
   30   12   28 1     
   31   13   29 1     
   32   13   30 1     
   33   14   31 1     
@<TRIPOS>SUBSTRUCTURE
      1 ****           1
@<TRIPOS>SET
DONOR_HYDROGENS      STATIC     ATOMS    <user>   **** ""
1 32
ATOM$RED        STATIC     ATOMS    COLORGROUP SYSTEM
1 32
@<TRIPOS>COMMENT
> <Gold.Version>
2022.2.0

> <Gold.Id.Protein>
3pbl|protein|mol2

> <Gold.Protein.RotatedTorsions>
[ 1303 1298 1297 1294 ] final   97.24 input  179.99 | X-H torsion
[ 2461 2456 2455 2452 ] final   88.59 input   30.03 | X-H torsion
[ 2515 2510 2509 2506 ] final -107.97 input  -89.99 | X-H torsion
[ 3721 3712 3711 3710 ] final -172.02 input -179.91 | X-H torsion
[ 3841 3832 3831 3830 ] final  141.56 input -179.91 | X-H torsion
[ 3767 3762 3761 3758 ] final  -58.89 input  -89.99 | X-H torsion
[ 2472 2467 2466 2463 ] final  -12.23 input  -89.97 | X-H torsion

> <Gold.Protein.ActiveResidues>
 VAL82   VAL86   LEU89   PHE106  VAL107  ASP110  VAL111  MET112  CYS114  THR115 
 CYS181  SER182  ILE183  PHE188  VAL189  ILE190  SER192  SER193  SER196  TRP342 
 PHE345  PHE346  HIS349  VAL350  TYR365  THR369  GLY372  TYR373 

> <Gold.Protein.RotatedAtoms>
    4.5048  -10.0517    4.8943 H   0  0  0  0  0  0  0  0  0  0  0  0  # atno 1303 bound_to 1298
    2.1329   -8.2825    7.7059 H   0  0  0  0  0  0  0  0  0  0  0  0  # atno 2461 bound_to 2456
   -3.7034   -4.9268    8.2430 H   0  0  0  0  0  0  0  0  0  0  0  0  # atno 2472 bound_to 2467
    2.7685   -9.1201    4.8305 H   0  0  0  0  0  0  0  0  0  0  0  0  # atno 2515 bound_to 2510
   -3.3345  -16.5678   13.6598 H   0  0  0  0  0  0  0  0  0  0  0  0  # atno 3721 bound_to 3712
   -5.4680  -22.0689   10.7945 H   0  0  0  0  0  0  0  0  0  0  0  0  # atno 3767 bound_to 3762
    3.1333  -20.5035    8.7088 H   0  0  0  0  0  0  0  0  0  0  0  0  # atno 3841 bound_to 3832
    3.3296   -9.5448    3.8803 LP  0  0  0  0  0  0  0  0  0  0  0  0  # atno 4297 bound_to 1298
    4.5276   -8.5245    4.3168 LP  0  0  0  0  0  0  0  0  0  0  0  0  # atno 4298 bound_to 1298
    0.6061   -8.2374    7.1278 LP  0  0  0  0  0  0  0  0  0  0  0  0  # atno 4299 bound_to 2456
    0.9990   -9.2881    8.3145 LP  0  0  0  0  0  0  0  0  0  0  0  0  # atno 4300 bound_to 2456
    2.0707   -8.3593    6.0954 LP  0  0  0  0  0  0  0  0  0  0  0  0  # atno 4301 bound_to 2510
    2.4574   -7.5193    4.7495 LP  0  0  0  0  0  0  0  0  0  0  0  0  # atno 4302 bound_to 2510
   -2.7811  -18.0218   13.2628 LP  0  0  0  0  0  0  0  0  0  0  0  0  # atno 4306 bound_to 3712
   -2.8968  -17.5767   14.8297 LP  0  0  0  0  0  0  0  0  0  0  0  0  # atno 4307 bound_to 3712
    1.8127  -20.8709    9.5438 LP  0  0  0  0  0  0  0  0  0  0  0  0  # atno 4314 bound_to 3832
    1.7972  -19.6497    8.4599 LP  0  0  0  0  0  0  0  0  0  0  0  0  # atno 4315 bound_to 3832
   -4.1052  -22.5195   11.5733 LP  0  0  0  0  0  0  0  0  0  0  0  0  # atno 4318 bound_to 3762
   -4.5544  -23.2865   10.2033 LP  0  0  0  0  0  0  0  0  0  0  0  0  # atno 4319 bound_to 3762
   -4.7011   -5.4601    9.4205 LP  0  0  0  0  0  0  0  0  0  0  0  0  # atno 4320 bound_to 2467
   -5.3123   -5.0066    7.9757 LP  0  0  0  0  0  0  0  0  0  0  0  0  # atno 4321 bound_to 2467

> <Gold.Score>
     Score     S(PLP)   S(hbond)     S(cho)   S(metal)  DE(clash)   DE(tors)     intcor
     45.39     -46.06       0.00       0.00       0.00       0.00       0.34       0.00

> <Gold.PLP.Fitness>
45.3881

> <Gold.PLP.PLP>
-46.0650

> <Gold.PLP.part.hbond>
0.0000

> <Gold.PLP.part.metal>
0.0000

> <Gold.PLP.part.buried>
-3.6388

> <Gold.PLP.part.nonpolar>
-43.4914

> <Gold.PLP.part.repulsive>
0.1231

> <Gold.PLP.ligand.clash>
0.0000

> <Gold.PLP.ligand.torsion>
0.3384

> <Gold.PLP.Chemscore.Hbond>
0.0000

> <Gold.PLP.Chemscore.CHOScore>
0.0000

> <Gold.PLP.Chemscore.Metal>
0.0000

> <Gold.PLP.Chemscore.Internal.Correction>
0.0000

