#       Name:                EN300-02904_i001
#       Creating user name   fsindt
#       Creation time:       Tue Feb 28 08:10:34 2023


#       File generated by GOLD software.
#

@<TRIPOS>MOLECULE
EN300-02904_i001|amine_7|mol2|4351|dock15
    32    33     1
SMALL
USER_CHARGES


@<TRIPOS>ATOM
      1 C1           3.2009 -17.1213  12.8221 C.3            1 <1>                0.0000
      2 C2           1.8628 -16.4429  12.9651 C.ar           1 <1>                0.0000
      3 C3           1.0795 -16.6488  14.0927 C.ar           1 <1>                0.0000
      4 C4          -0.1414 -16.0119  14.1936 C.ar           1 <1>                0.0000
      5 N5          -0.5697 -15.2140  13.2340 N.ar           1 <1>                0.0000
      6 C6           0.1479 -14.9922  12.1434 C.ar           1 <1>                0.0000
      7 N7          -0.3420 -14.1439  11.1573 N.pl3          1 <1>                0.0000
      8 C8           0.4424 -13.9013   9.9439 C.3            1 <1>                0.0000
      9 C9           0.3055 -15.0981   9.0005 C.3            1 <1>                0.0000
     10 C10          1.1246 -14.8449   7.7333 C.3            1 <1>                0.0000
     11 C11          0.6090 -13.5843   7.0361 C.3            1 <1>                0.0000
     12 C12          0.7459 -12.3875   7.9795 C.3            1 <1>                0.0000
     13 C13         -0.0732 -12.6408   9.2467 C.3            1 <1>                0.0000
     14 C14          1.3899 -15.5964  11.9783 C.ar           1 <1>                0.0000
     15 H15          3.0693 -18.0831  12.3264 H              1 <1>                0.0000
     16 H16          3.8646 -16.4938  12.2274 H              1 <1>                0.0000
     17 H17          3.6363 -17.2776  13.8090 H              1 <1>                0.0000
     18 H18          1.4215 -17.3007  14.8830 H              1 <1>                0.0000
     19 H19         -0.7540 -16.1693  15.0691 H              1 <1>                0.0000
     20 H20          1.4908 -13.7664  10.2098 H              1 <1>                0.0000
     21 H21          0.6728 -15.9961   9.4971 H              1 <1>                0.0000
     22 H22         -0.7429 -15.2330   8.7345 H              1 <1>                0.0000
     23 H23          2.1730 -14.7099   7.9993 H              1 <1>                0.0000
     24 H24          1.0271 -15.6974   7.0612 H              1 <1>                0.0000
     25 H25          1.1925 -13.4039   6.1333 H              1 <1>                0.0000
     26 H26         -0.4394 -13.7192   6.7701 H              1 <1>                0.0000
     27 H27          1.7943 -12.2527   8.2455 H              1 <1>                0.0000
     28 H28          0.3785 -11.4895   7.4829 H              1 <1>                0.0000
     29 H29         -1.1217 -12.7756   8.9808 H              1 <1>                0.0000
     30 H30          0.0243 -11.7882   9.9188 H              1 <1>                0.0000
     31 H31          1.9735 -15.4135  11.0882 H              1 <1>                0.0000
     32 H32         -1.2031 -13.7125  11.2725 H              1 <1>                0.0000
@<TRIPOS>BOND
    1    1    2 1     
    2    1   15 1     
    3    1   16 1     
    4    1   17 1     
    5    2    3 ar    
    6    2   14 ar    
    7    3    4 ar    
    8    3   18 1     
    9    4    5 ar    
   10    4   19 1     
   11    5    6 ar    
   12    6    7 1     
   13    6   14 ar    
   14    7    8 1     
   15    7   32 1     
   16    8    9 1     
   17    8   13 1     
   18    8   20 1     
   19    9   10 1     
   20    9   21 1     
   21    9   22 1     
   22   10   11 1     
   23   10   23 1     
   24   10   24 1     
   25   11   12 1     
   26   11   25 1     
   27   11   26 1     
   28   12   13 1     
   29   12   27 1     
   30   12   28 1     
   31   13   29 1     
   32   13   30 1     
   33   14   31 1     
@<TRIPOS>SUBSTRUCTURE
      1 ****           1
@<TRIPOS>SET
DONOR_HYDROGENS      STATIC     ATOMS    <user>   **** ""
1 32
ATOM$RED        STATIC     ATOMS    COLORGROUP SYSTEM
1 32
@<TRIPOS>COMMENT
> <Gold.Version>
2022.2.0

> <Gold.Id.Protein>
3pbl|protein|mol2

> <Gold.Protein.RotatedTorsions>
[ 1303 1298 1297 1294 ] final   34.18 input  179.99 | X-H torsion
[ 2461 2456 2455 2452 ] final   34.50 input   30.03 | X-H torsion
[ 2515 2510 2509 2506 ] final  149.20 input  -89.99 | X-H torsion
[ 3721 3712 3711 3710 ] final  -40.64 input -179.91 | X-H torsion
[ 3841 3832 3831 3830 ] final   48.31 input -179.91 | X-H torsion
[ 3767 3762 3761 3758 ] final  129.48 input  -89.99 | X-H torsion
[ 2472 2467 2466 2463 ] final   60.95 input  -89.97 | X-H torsion

> <Gold.Protein.ActiveResidues>
 VAL82   VAL86   LEU89   PHE106  VAL107  ASP110  VAL111  MET112  CYS114  THR115 
 CYS181  SER182  ILE183  PHE188  VAL189  ILE190  SER192  SER193  SER196  TRP342 
 PHE345  PHE346  HIS349  VAL350  TYR365  THR369  GLY372  TYR373 

> <Gold.Protein.RotatedAtoms>
    3.6782  -10.2059    4.3797 H   0  0  0  0  0  0  0  0  0  0  0  0  # atno 1303 bound_to 1298
    1.5824   -7.9235    7.1550 H   0  0  0  0  0  0  0  0  0  0  0  0  # atno 2461 bound_to 2456
   -4.6585   -4.8217    7.6600 H   0  0  0  0  0  0  0  0  0  0  0  0  # atno 2472 bound_to 2467
    2.1401   -8.6310    6.0701 H   0  0  0  0  0  0  0  0  0  0  0  0  # atno 2515 bound_to 2510
   -2.6661  -17.5771   14.6733 H   0  0  0  0  0  0  0  0  0  0  0  0  # atno 3721 bound_to 3712
   -3.9200  -23.1101   11.0336 H   0  0  0  0  0  0  0  0  0  0  0  0  # atno 3767 bound_to 3762
    2.3109  -20.9014    9.5743 H   0  0  0  0  0  0  0  0  0  0  0  0  # atno 3841 bound_to 3832
    3.7739   -8.6651    3.8477 LP  0  0  0  0  0  0  0  0  0  0  0  0  # atno 4297 bound_to 1298
    4.9102   -9.2500    4.8642 LP  0  0  0  0  0  0  0  0  0  0  0  0  # atno 4298 bound_to 1298
    0.3405   -8.8586    7.6556 LP  0  0  0  0  0  0  0  0  0  0  0  0  # atno 4299 bound_to 2456
    1.8149   -9.0259    8.3374 LP  0  0  0  0  0  0  0  0  0  0  0  0  # atno 4300 bound_to 2456
    2.3373   -7.4259    4.9863 LP  0  0  0  0  0  0  0  0  0  0  0  0  # atno 4301 bound_to 2510
    2.8194   -8.9421    4.6184 LP  0  0  0  0  0  0  0  0  0  0  0  0  # atno 4302 bound_to 2510
   -3.5673  -16.5643   13.8131 LP  0  0  0  0  0  0  0  0  0  0  0  0  # atno 4306 bound_to 3712
   -2.8823  -17.8690   13.1094 LP  0  0  0  0  0  0  0  0  0  0  0  0  # atno 4307 bound_to 3712
    1.5393  -19.7745    8.7313 LP  0  0  0  0  0  0  0  0  0  0  0  0  # atno 4314 bound_to 3832
    3.0205  -20.2865    8.2726 LP  0  0  0  0  0  0  0  0  0  0  0  0  # atno 4315 bound_to 3832
   -5.2300  -22.8320   10.0990 LP  0  0  0  0  0  0  0  0  0  0  0  0  # atno 4318 bound_to 3762
   -4.9771  -21.9331   11.4386 LP  0  0  0  0  0  0  0  0  0  0  0  0  # atno 4319 bound_to 3762
   -3.7205   -5.1817    8.9472 LP  0  0  0  0  0  0  0  0  0  0  0  0  # atno 4320 bound_to 2467
   -5.3379   -5.3901    9.0318 LP  0  0  0  0  0  0  0  0  0  0  0  0  # atno 4321 bound_to 2467

> <Gold.Score>
     Score     S(PLP)   S(hbond)     S(cho)   S(metal)  DE(clash)   DE(tors)     intcor
     44.56     -45.03       0.00       0.00       0.00       0.00       0.24       0.00

> <Gold.PLP.Fitness>
44.5552

> <Gold.PLP.PLP>
-45.0350

> <Gold.PLP.part.hbond>
0.0000

> <Gold.PLP.part.metal>
0.0000

> <Gold.PLP.part.buried>
-1.5040

> <Gold.PLP.part.nonpolar>
-44.0645

> <Gold.PLP.part.repulsive>
0.1397

> <Gold.PLP.ligand.clash>
0.0000

> <Gold.PLP.ligand.torsion>
0.2399

> <Gold.PLP.Chemscore.Hbond>
0.0000

> <Gold.PLP.Chemscore.CHOScore>
0.0000

> <Gold.PLP.Chemscore.Metal>
0.0000

> <Gold.PLP.Chemscore.Internal.Correction>
0.0000

