#       Name:                EN300-02904_i001
#       Creating user name   fsindt
#       Creation time:       Tue Feb 28 08:10:37 2023


#       File generated by GOLD software.
#

@<TRIPOS>MOLECULE
EN300-02904_i001|amine_7|mol2|4351|dock20
    32    33     1
SMALL
USER_CHARGES


@<TRIPOS>ATOM
      1 C1           2.2932 -17.2462  14.8371 C.3            1 <1>                0.0000
      2 C2           1.4472 -16.5024  13.8361 C.ar           1 <1>                0.0000
      3 C3           0.1758 -16.0576  14.1725 C.ar           1 <1>                0.0000
      4 C4          -0.5738 -15.3786  13.2327 C.ar           1 <1>                0.0000
      5 N5          -0.0971 -15.1493  12.0240 N.ar           1 <1>                0.0000
      6 C6           1.1105 -15.5573  11.6650 C.ar           1 <1>                0.0000
      7 N7           1.5730 -15.2941  10.3808 N.pl3          1 <1>                0.0000
      8 C8           0.7294 -14.5595   9.4348 C.3            1 <1>                0.0000
      9 C9           0.5413 -13.1234   9.9279 C.3            1 <1>                0.0000
     10 C10         -0.3397 -12.3561   8.9400 C.3            1 <1>                0.0000
     11 C11          0.3310 -12.3395   7.5650 C.3            1 <1>                0.0000
     12 C12          0.5191 -13.7756   7.0718 C.3            1 <1>                0.0000
     13 C13          1.4001 -14.5428   8.0597 C.3            1 <1>                0.0000
     14 C14          1.9223 -16.2422  12.5631 C.ar           1 <1>                0.0000
     15 H15          2.0997 -18.3156  14.7529 H              1 <1>                0.0000
     16 H16          3.3470 -17.0509  14.6386 H              1 <1>                0.0000
     17 H17          2.0448 -16.9102  15.8438 H              1 <1>                0.0000
     18 H18         -0.2231 -16.2413  15.1592 H              1 <1>                0.0000
     19 H19         -1.5634 -15.0308  13.4902 H              1 <1>                0.0000
     20 H20         -0.2422 -15.0478   9.3592 H              1 <1>                0.0000
     21 H21          0.0635 -13.1353  10.9075 H              1 <1>                0.0000
     22 H22          1.5129 -12.6350  10.0034 H              1 <1>                0.0000
     23 H23         -1.3112 -12.8445   8.8644 H              1 <1>                0.0000
     24 H24         -0.4737 -11.3330   9.2912 H              1 <1>                0.0000
     25 H25         -0.2966 -11.7929   6.8611 H              1 <1>                0.0000
     26 H26          1.3026 -11.8511   7.6405 H              1 <1>                0.0000
     27 H27         -0.4525 -14.2639   6.9962 H              1 <1>                0.0000
     28 H28          0.9970 -13.7638   6.0922 H              1 <1>                0.0000
     29 H29          2.3717 -14.0545   8.1353 H              1 <1>                0.0000
     30 H30          1.5341 -15.5659   7.7084 H              1 <1>                0.0000
     31 H31          2.9070 -16.5735  12.2681 H              1 <1>                0.0000
     32 H32          2.4541 -15.5969  10.1111 H              1 <1>                0.0000
@<TRIPOS>BOND
    1    1    2 1     
    2    1   15 1     
    3    1   16 1     
    4    1   17 1     
    5    2    3 ar    
    6    2   14 ar    
    7    3    4 ar    
    8    3   18 1     
    9    4    5 ar    
   10    4   19 1     
   11    5    6 ar    
   12    6    7 1     
   13    6   14 ar    
   14    7    8 1     
   15    7   32 1     
   16    8    9 1     
   17    8   13 1     
   18    8   20 1     
   19    9   10 1     
   20    9   21 1     
   21    9   22 1     
   22   10   11 1     
   23   10   23 1     
   24   10   24 1     
   25   11   12 1     
   26   11   25 1     
   27   11   26 1     
   28   12   13 1     
   29   12   27 1     
   30   12   28 1     
   31   13   29 1     
   32   13   30 1     
   33   14   31 1     
@<TRIPOS>SUBSTRUCTURE
      1 ****           1
@<TRIPOS>SET
DONOR_HYDROGENS      STATIC     ATOMS    <user>   **** ""
1 32
ATOM$RED        STATIC     ATOMS    COLORGROUP SYSTEM
1 32
@<TRIPOS>COMMENT
> <Gold.Version>
2022.2.0

> <Gold.Id.Protein>
3pbl|protein|mol2

> <Gold.Protein.RotatedTorsions>
[ 1303 1298 1297 1294 ] final  144.90 input  179.99 | X-H torsion
[ 2461 2456 2455 2452 ] final  105.83 input   30.03 | X-H torsion
[ 2515 2510 2509 2506 ] final -160.57 input  -89.99 | X-H torsion
[ 3721 3712 3711 3710 ] final   27.65 input -179.91 | X-H torsion
[ 3841 3832 3831 3830 ] final   17.81 input -179.91 | X-H torsion
[ 3767 3762 3761 3758 ] final  114.14 input  -89.99 | X-H torsion
[ 2472 2467 2466 2463 ] final -156.38 input  -89.97 | X-H torsion

> <Gold.Protein.ActiveResidues>
 VAL82   VAL86   LEU89   PHE106  VAL107  ASP110  VAL111  MET112  CYS114  THR115 
 CYS181  SER182  ILE183  PHE188  VAL189  ILE190  SER192  SER193  SER196  TRP342 
 PHE345  PHE346  HIS349  VAL350  TYR365  THR369  GLY372  TYR373 

> <Gold.Protein.RotatedAtoms>
    4.8905   -9.3949    4.9074 H   0  0  0  0  0  0  0  0  0  0  0  0  # atno 1303 bound_to 1298
    2.1603   -8.4768    7.9095 H   0  0  0  0  0  0  0  0  0  0  0  0  # atno 2461 bound_to 2456
   -5.0699   -5.4510    9.2805 H   0  0  0  0  0  0  0  0  0  0  0  0  # atno 2472 bound_to 2467
    2.4592   -9.1962    5.6026 H   0  0  0  0  0  0  0  0  0  0  0  0  # atno 2515 bound_to 2510
   -2.4787  -18.0342   13.8358 H   0  0  0  0  0  0  0  0  0  0  0  0  # atno 3721 bound_to 3712
   -3.9868  -23.2302   10.8226 H   0  0  0  0  0  0  0  0  0  0  0  0  # atno 3767 bound_to 3762
    1.9175  -20.6761    9.6162 H   0  0  0  0  0  0  0  0  0  0  0  0  # atno 3841 bound_to 3832
    3.5784  -10.1409    4.2845 LP  0  0  0  0  0  0  0  0  0  0  0  0  # atno 4297 bound_to 1298
    3.8930   -8.5855    3.8995 LP  0  0  0  0  0  0  0  0  0  0  0  0  # atno 4298 bound_to 1298
    0.8289   -8.0818    7.0500 LP  0  0  0  0  0  0  0  0  0  0  0  0  # atno 4299 bound_to 2456
    0.7489   -9.2496    8.1887 LP  0  0  0  0  0  0  0  0  0  0  0  0  # atno 4300 bound_to 2456
    2.0699   -7.6146    5.7166 LP  0  0  0  0  0  0  0  0  0  0  0  0  # atno 4301 bound_to 2510
    2.7676   -8.1879    4.3559 LP  0  0  0  0  0  0  0  0  0  0  0  0  # atno 4302 bound_to 2510
   -3.2510  -16.9698   14.7569 LP  0  0  0  0  0  0  0  0  0  0  0  0  # atno 4306 bound_to 3712
   -3.4150  -16.9358   13.1325 LP  0  0  0  0  0  0  0  0  0  0  0  0  # atno 4307 bound_to 3712
    1.8865  -19.6370    8.3933 LP  0  0  0  0  0  0  0  0  0  0  0  0  # atno 4314 bound_to 3832
    3.1279  -20.6843    8.5622 LP  0  0  0  0  0  0  0  0  0  0  0  0  # atno 4315 bound_to 3832
   -5.3728  -22.6448   10.1878 LP  0  0  0  0  0  0  0  0  0  0  0  0  # atno 4318 bound_to 3762
   -4.7675  -22.0003   11.5607 LP  0  0  0  0  0  0  0  0  0  0  0  0  # atno 4319 bound_to 3762
   -5.0120   -4.8914    7.7476 LP  0  0  0  0  0  0  0  0  0  0  0  0  # atno 4320 bound_to 2467
   -3.6352   -5.0511    8.6111 LP  0  0  0  0  0  0  0  0  0  0  0  0  # atno 4321 bound_to 2467

> <Gold.Score>
     Score     S(PLP)   S(hbond)     S(cho)   S(metal)  DE(clash)   DE(tors)     intcor
     47.15     -46.08       0.38       0.00       0.00       0.00       0.04       0.00

> <Gold.PLP.Fitness>
47.1503

> <Gold.PLP.PLP>
-46.0796

> <Gold.PLP.part.hbond>
-1.0000

> <Gold.PLP.part.metal>
0.0000

> <Gold.PLP.part.buried>
-3.6863

> <Gold.PLP.part.nonpolar>
-41.8451

> <Gold.PLP.part.repulsive>
0.0955

> <Gold.PLP.ligand.clash>
0.0000

> <Gold.PLP.ligand.torsion>
0.0407

> <Gold.PLP.Chemscore.Hbond>
0.3840

> <Gold.PLP.Chemscore.CHOScore>
0.0000

> <Gold.PLP.Chemscore.Metal>
0.0000

> <Gold.Chemscore.Hbonds>
donor molecule, donor type, donor heavy atom, donor atom, acceptor molecule, acceptor atom, score
      L1  H     7    32       P1  1227  0.38

> <Gold.PLP.Chemscore.Internal.Correction>
0.0000

