#       Name:                EN300-207119_i001
#       Creating user name   aseyller
#       Creation time:       Fri Apr 21 16:30:31 2023


#       File generated by GOLD software.
#

@<TRIPOS>MOLECULE
EN300-207119_i001|aminophenols|mol2|38|dock9
    20    20     1
SMALL
USER_CHARGES


@<TRIPOS>ATOM
      1 C1          30.3634  37.2756  37.2430 C.3            1 <1>                0.0000
      2 C2          30.2445  36.3594  38.4335 C.2            1 <1>                0.0000
      3 O3          31.1733  35.6428  38.7426 O.2            1 <1>                0.0000
      4 C4          29.0051  36.3339  39.2188 C.ar           1 <1>                0.0000
      5 C5          27.8502  36.9562  38.7282 C.ar           1 <1>                0.0000
      6 C6          26.6892  36.9312  39.4660 C.ar           1 <1>                0.0000
      7 C7          26.6587  36.2887  40.6999 C.ar           1 <1>                0.0000
      8 N8          25.4820  36.2661  41.4415 N.pl3          1 <1>                0.0000
      9 C9          27.8069  35.6658  41.1954 C.ar           1 <1>                0.0000
     10 O10         27.7733  35.0383  42.4017 O.3            1 <1>                0.0000
     11 C11         28.9726  35.6819  40.4588 C.ar           1 <1>                0.0000
     12 H12         31.3475  37.1564  36.7896 H              1 <1>                0.0000
     13 H13         29.5942  37.0243  36.5128 H              1 <1>                0.0000
     14 H14         30.2347  38.3088  37.5653 H              1 <1>                0.0000
     15 H15         27.8711  37.4559  37.7710 H              1 <1>                0.0000
     16 H16         25.7994  37.4118  39.0868 H              1 <1>                0.0000
     17 H17         29.8608  35.2004  40.8407 H              1 <1>                0.0000
     18 H18         24.6840  36.6978  41.0984 H              1 <1>                0.0000
     19 H19         25.4595  35.8186  42.3020 H              1 <1>                0.0000
     20 H20         26.9140  35.0804  42.8431 H              1 <1>                0.0000
@<TRIPOS>BOND
    1    1    2 1     
    2    1   12 1     
    3    1   13 1     
    4    1   14 1     
    5    2    3 2     
    6    2    4 1     
    7    4    5 ar    
    8    4   11 ar    
    9    5    6 ar    
   10    5   15 1     
   11    6    7 ar    
   12    6   16 1     
   13    7    8 1     
   14    7    9 ar    
   15    8   18 1     
   16    8   19 1     
   17    9   10 1     
   18    9   11 ar    
   19   10   20 1     
   20   11   17 1     
@<TRIPOS>SUBSTRUCTURE
      1 ****           1
@<TRIPOS>SET
DONOR_HYDROGENS      STATIC     ATOMS    <user>   **** ""
3 18 19 20
ATOM$RED        STATIC     ATOMS    COLORGROUP SYSTEM
3 18 19 20
@<TRIPOS>COMMENT
> <Gold.Version>
2022.2.0

> <Gold.Id.Protein>
1qkm|1qkm_protein|mol2

> <Gold.Protein.RotatedTorsions>
[  496  491  490  487 ] final  161.10 input  -89.99 | X-H torsion

> <Gold.Protein.ActiveResidues>
 MET295  LEU298  THR299  LEU301  ALA302  GLU305  TRP335  MET336  LEU339  MET340 
 GLY342  LEU343  ARG346  PHE356  ILE373  ILE376  PHE377  LEU380  LYS471  GLY472 
 MET473  HIS475  LEU476  LEU477  ASN478  MET479  VAL484  VAL487 

> <Gold.Protein.RotatedAtoms>
   37.2995   33.2177   41.0574 H   0  0  0  0  0  0  0  0  0  0  0  0  # atno 496  bound_to 491 

> <Gold.Score>
     Score     S(PLP)   S(hbond)     S(cho)   S(metal)  DE(clash)   DE(tors)     intcor
     38.99     -34.49       1.54       0.00       0.00       0.00       0.07       0.00

> <Gold.PLP.Fitness>
38.9860

> <Gold.PLP.PLP>
-34.4906

> <Gold.PLP.part.hbond>
-1.3501

> <Gold.PLP.part.metal>
0.0000

> <Gold.PLP.part.buried>
-4.2505

> <Gold.PLP.part.nonpolar>
-30.6004

> <Gold.PLP.part.repulsive>
0.1838

> <Gold.PLP.ligand.clash>
0.0000

> <Gold.PLP.ligand.torsion>
0.0666

> <Gold.PLP.Chemscore.Hbond>
1.5429

> <Gold.PLP.Chemscore.CHOScore>
0.0000

> <Gold.PLP.Chemscore.Metal>
0.0000

> <Gold.Chemscore.Hbonds>
donor molecule, donor type, donor heavy atom, donor atom, acceptor molecule, acceptor atom, score
      L1  H     8    19       P1   582  1.00
      L1  H    10    20       P1   582  0.54

> <Gold.PLP.Chemscore.Internal.Correction>
0.0000

