#       Name:                EN300-207119_i001
#       Creating user name   aseyller
#       Creation time:       Fri Apr 21 16:30:34 2023


#       File generated by GOLD software.
#

@<TRIPOS>MOLECULE
EN300-207119_i001|aminophenols|mol2|38|dock15
    20    20     1
SMALL
USER_CHARGES


@<TRIPOS>ATOM
      1 C1          27.9983  39.0988  36.9582 C.3            1 <1>                0.0000
      2 C2          28.2763  37.7676  37.6076 C.2            1 <1>                0.0000
      3 O3          29.2074  37.0895  37.2267 O.2            1 <1>                0.0000
      4 C4          27.4208  37.2915  38.7006 C.ar           1 <1>                0.0000
      5 C5          26.1025  37.7516  38.8117 C.ar           1 <1>                0.0000
      6 C6          25.3019  37.3041  39.8373 C.ar           1 <1>                0.0000
      7 C7          25.7985  36.3945  40.7658 C.ar           1 <1>                0.0000
      8 N8          24.9845  35.9448  41.8005 N.pl3          1 <1>                0.0000
      9 C9          27.1124  35.9312  40.6611 C.ar           1 <1>                0.0000
     10 O10         27.5943  35.0417  41.5703 O.3            1 <1>                0.0000
     11 C11         27.9188  36.3710  39.6325 C.ar           1 <1>                0.0000
     12 H12         28.7326  39.2806  36.1734 H              1 <1>                0.0000
     13 H13         26.9982  39.0899  36.5249 H              1 <1>                0.0000
     14 H14         28.0631  39.8886  37.7064 H              1 <1>                0.0000
     15 H15         25.7146  38.4579  38.0926 H              1 <1>                0.0000
     16 H16         24.2857  37.6599  39.9220 H              1 <1>                0.0000
     17 H17         28.9346  36.0133  39.5503 H              1 <1>                0.0000
     18 H18         24.0719  36.2654  41.8740 H              1 <1>                0.0000
     19 H19         25.3296  35.3108  42.4485 H              1 <1>                0.0000
     20 H20         26.9693  34.8216  42.2746 H              1 <1>                0.0000
@<TRIPOS>BOND
    1    1    2 1     
    2    1   12 1     
    3    1   13 1     
    4    1   14 1     
    5    2    3 2     
    6    2    4 1     
    7    4    5 ar    
    8    4   11 ar    
    9    5    6 ar    
   10    5   15 1     
   11    6    7 ar    
   12    6   16 1     
   13    7    8 1     
   14    7    9 ar    
   15    8   18 1     
   16    8   19 1     
   17    9   10 1     
   18    9   11 ar    
   19   10   20 1     
   20   11   17 1     
@<TRIPOS>SUBSTRUCTURE
      1 ****           1
@<TRIPOS>SET
DONOR_HYDROGENS      STATIC     ATOMS    <user>   **** ""
3 18 19 20
ATOM$RED        STATIC     ATOMS    COLORGROUP SYSTEM
3 18 19 20
@<TRIPOS>COMMENT
> <Gold.Version>
2022.2.0

> <Gold.Id.Protein>
1qkm|1qkm_protein|mol2

> <Gold.Protein.RotatedTorsions>
[  496  491  490  487 ] final   80.04 input  -89.99 | X-H torsion

> <Gold.Protein.ActiveResidues>
 MET295  LEU298  THR299  LEU301  ALA302  GLU305  TRP335  MET336  LEU339  MET340 
 GLY342  LEU343  ARG346  PHE356  ILE373  ILE376  PHE377  LEU380  LYS471  GLY472 
 MET473  HIS475  LEU476  LEU477  ASN478  MET479  VAL484  VAL487 

> <Gold.Protein.RotatedAtoms>
   36.7283   33.0993   42.1354 H   0  0  0  0  0  0  0  0  0  0  0  0  # atno 496  bound_to 491 

> <Gold.Score>
     Score     S(PLP)   S(hbond)     S(cho)   S(metal)  DE(clash)   DE(tors)     intcor
     41.64     -36.17       2.00       0.00       0.00       0.00       0.26       0.00

> <Gold.PLP.Fitness>
41.6423

> <Gold.PLP.PLP>
-36.1687

> <Gold.PLP.part.hbond>
-2.6791

> <Gold.PLP.part.metal>
0.0000

> <Gold.PLP.part.buried>
-3.3655

> <Gold.PLP.part.nonpolar>
-30.6355

> <Gold.PLP.part.repulsive>
0.5597

> <Gold.PLP.ligand.clash>
0.0000

> <Gold.PLP.ligand.torsion>
0.2632

> <Gold.PLP.Chemscore.Hbond>
2.0000

> <Gold.PLP.Chemscore.CHOScore>
0.0000

> <Gold.PLP.Chemscore.Metal>
0.0000

> <Gold.Chemscore.Hbonds>
donor molecule, donor type, donor heavy atom, donor atom, acceptor molecule, acceptor atom, score
      L1  H     8    19       P1   582  1.00
      L1  H    10    20       P1   582  1.00

> <Gold.PLP.Chemscore.Internal.Correction>
0.0000

