#       Name:                EN300-207119_i001
#       Creating user name   aseyller
#       Creation time:       Fri Apr 21 16:30:32 2023


#       File generated by GOLD software.
#

@<TRIPOS>MOLECULE
EN300-207119_i001|aminophenols|mol2|38|dock11
    20    20     1
SMALL
USER_CHARGES


@<TRIPOS>ATOM
      1 C1          29.2019  38.1925  36.7263 C.3            1 <1>                0.0000
      2 C2          27.9676  38.1643  37.5904 C.2            1 <1>                0.0000
      3 O3          26.9904  38.8096  37.2735 O.2            1 <1>                0.0000
      4 C4          27.9478  37.3564  38.8152 C.ar           1 <1>                0.0000
      5 C5          29.1354  36.8032  39.3107 C.ar           1 <1>                0.0000
      6 C6          29.1147  36.0459  40.4592 C.ar           1 <1>                0.0000
      7 C7          27.9159  35.8275  41.1311 C.ar           1 <1>                0.0000
      8 N8          27.9008  35.0615  42.2922 N.pl3          1 <1>                0.0000
      9 C9          26.7276  36.3763  40.6427 C.ar           1 <1>                0.0000
     10 O10         25.5576  36.1612  41.3024 O.3            1 <1>                0.0000
     11 C11         26.7416  37.1412  39.4953 C.ar           1 <1>                0.0000
     12 H12         29.0296  38.8415  35.8677 H              1 <1>                0.0000
     13 H13         30.0429  38.5728  37.3061 H              1 <1>                0.0000
     14 H14         29.4260  37.1837  36.3799 H              1 <1>                0.0000
     15 H15         30.0671  36.9707  38.7910 H              1 <1>                0.0000
     16 H16         30.0311  35.6196  40.8400 H              1 <1>                0.0000
     17 H17         25.8236  37.5662  39.1169 H              1 <1>                0.0000
     18 H18         28.7253  34.6803  42.6326 H              1 <1>                0.0000
     19 H19         27.0657  34.9084  42.7615 H              1 <1>                0.0000
     20 H20         25.6506  35.6294  42.1046 H              1 <1>                0.0000
@<TRIPOS>BOND
    1    1    2 1     
    2    1   12 1     
    3    1   13 1     
    4    1   14 1     
    5    2    3 2     
    6    2    4 1     
    7    4    5 ar    
    8    4   11 ar    
    9    5    6 ar    
   10    5   15 1     
   11    6    7 ar    
   12    6   16 1     
   13    7    8 1     
   14    7    9 ar    
   15    8   18 1     
   16    8   19 1     
   17    9   10 1     
   18    9   11 ar    
   19   10   20 1     
   20   11   17 1     
@<TRIPOS>SUBSTRUCTURE
      1 ****           1
@<TRIPOS>SET
DONOR_HYDROGENS      STATIC     ATOMS    <user>   **** ""
3 18 19 20
ATOM$RED        STATIC     ATOMS    COLORGROUP SYSTEM
3 18 19 20
@<TRIPOS>COMMENT
> <Gold.Version>
2022.2.0

> <Gold.Id.Protein>
1qkm|1qkm_protein|mol2

> <Gold.Protein.RotatedTorsions>
[  496  491  490  487 ] final  -62.68 input  -89.99 | X-H torsion

> <Gold.Protein.ActiveResidues>
 MET295  LEU298  THR299  LEU301  ALA302  GLU305  TRP335  MET336  LEU339  MET340 
 GLY342  LEU343  ARG346  PHE356  ILE373  ILE376  PHE377  LEU380  LYS471  GLY472 
 MET473  HIS475  LEU476  LEU477  ASN478  MET479  VAL484  VAL487 

> <Gold.Protein.RotatedAtoms>
   36.5180   34.7349   41.4460 H   0  0  0  0  0  0  0  0  0  0  0  0  # atno 496  bound_to 491 

> <Gold.Score>
     Score     S(PLP)   S(hbond)     S(cho)   S(metal)  DE(clash)   DE(tors)     intcor
     38.58     -33.21       1.83       0.00       0.00       0.00       0.06       0.00

> <Gold.PLP.Fitness>
38.5844

> <Gold.PLP.PLP>
-33.2127

> <Gold.PLP.part.hbond>
-1.5675

> <Gold.PLP.part.metal>
0.0000

> <Gold.PLP.part.buried>
-3.7662

> <Gold.PLP.part.nonpolar>
-27.9558

> <Gold.PLP.part.repulsive>
0.0968

> <Gold.PLP.ligand.clash>
0.0000

> <Gold.PLP.ligand.torsion>
0.0573

> <Gold.PLP.Chemscore.Hbond>
1.8288

> <Gold.PLP.Chemscore.CHOScore>
0.0000

> <Gold.PLP.Chemscore.Metal>
0.0000

> <Gold.Chemscore.Hbonds>
donor molecule, donor type, donor heavy atom, donor atom, acceptor molecule, acceptor atom, score
      L1  H     8    19       P1   582  0.83
      L1  H    10    20       P1   582  1.00

> <Gold.PLP.Chemscore.Internal.Correction>
0.0000

