#       Name:                EN300-207119_i001
#       Creating user name   aseyller
#       Creation time:       Fri Apr 21 16:30:35 2023


#       File generated by GOLD software.
#

@<TRIPOS>MOLECULE
EN300-207119_i001|aminophenols|mol2|38|dock16
    20    20     1
SMALL
USER_CHARGES


@<TRIPOS>ATOM
      1 C1          28.8090  39.4370  36.5348 C.3            1 <1>                0.0000
      2 C2          29.4226  38.3759  37.4115 C.2            1 <1>                0.0000
      3 O3          30.5946  38.0886  37.2862 O.2            1 <1>                0.0000
      4 C4          28.6024  37.6901  38.4167 C.ar           1 <1>                0.0000
      5 C5          27.2052  37.7611  38.3499 C.ar           1 <1>                0.0000
      6 C6          26.4379  37.1175  39.2934 C.ar           1 <1>                0.0000
      7 C7          27.0466  36.3952  40.3151 C.ar           1 <1>                0.0000
      8 N8          26.2661  35.7459  41.2661 N.pl3          1 <1>                0.0000
      9 C9          28.4398  36.3200  40.3878 C.ar           1 <1>                0.0000
     10 O10         29.0314  35.6127  41.3878 O.3            1 <1>                0.0000
     11 C11         29.2151  36.9578  39.4424 C.ar           1 <1>                0.0000
     12 H12         29.5659  39.8296  35.8557 H              1 <1>                0.0000
     13 H13         27.9924  39.0037  35.9572 H              1 <1>                0.0000
     14 H14         28.4250  40.2451  37.1571 H              1 <1>                0.0000
     15 H15         26.7301  38.3213  37.5582 H              1 <1>                0.0000
     16 H16         25.3606  37.1733  39.2410 H              1 <1>                0.0000
     17 H17         30.2923  36.9002  39.4974 H              1 <1>                0.0000
     18 H18         25.2987  35.7969  41.2165 H              1 <1>                0.0000
     19 H19         26.6892  35.2422  41.9790 H              1 <1>                0.0000
     20 H20         29.9882  35.5153  41.2878 H              1 <1>                0.0000
@<TRIPOS>BOND
    1    1    2 1     
    2    1   12 1     
    3    1   13 1     
    4    1   14 1     
    5    2    3 2     
    6    2    4 1     
    7    4    5 ar    
    8    4   11 ar    
    9    5    6 ar    
   10    5   15 1     
   11    6    7 ar    
   12    6   16 1     
   13    7    8 1     
   14    7    9 ar    
   15    8   18 1     
   16    8   19 1     
   17    9   10 1     
   18    9   11 ar    
   19   10   20 1     
   20   11   17 1     
@<TRIPOS>SUBSTRUCTURE
      1 ****           1
@<TRIPOS>SET
DONOR_HYDROGENS      STATIC     ATOMS    <user>   **** ""
3 18 19 20
ATOM$RED        STATIC     ATOMS    COLORGROUP SYSTEM
3 18 19 20
@<TRIPOS>COMMENT
> <Gold.Version>
2022.2.0

> <Gold.Id.Protein>
1qkm|1qkm_protein|mol2

> <Gold.Protein.RotatedTorsions>
[  496  491  490  487 ] final -106.17 input  -89.99 | X-H torsion

> <Gold.Protein.ActiveResidues>
 MET295  LEU298  THR299  LEU301  ALA302  GLU305  TRP335  MET336  LEU339  MET340 
 GLY342  LEU343  ARG346  PHE356  ILE373  ILE376  PHE377  LEU380  LYS471  GLY472 
 MET473  HIS475  LEU476  LEU477  ASN478  MET479  VAL484  VAL487 

> <Gold.Protein.RotatedAtoms>
   36.9059   34.5164   40.9074 H   0  0  0  0  0  0  0  0  0  0  0  0  # atno 496  bound_to 491 

> <Gold.Score>
     Score     S(PLP)   S(hbond)     S(cho)   S(metal)  DE(clash)   DE(tors)     intcor
     39.11     -34.30       1.68       0.00       0.00       0.00       0.11       0.00

> <Gold.PLP.Fitness>
39.1125

> <Gold.PLP.PLP>
-34.3018

> <Gold.PLP.part.hbond>
-2.0000

> <Gold.PLP.part.metal>
0.0000

> <Gold.PLP.part.buried>
-4.1142

> <Gold.PLP.part.nonpolar>
-27.9637

> <Gold.PLP.part.repulsive>
0.0376

> <Gold.PLP.ligand.clash>
0.0000

> <Gold.PLP.ligand.torsion>
0.1135

> <Gold.PLP.Chemscore.Hbond>
1.6793

> <Gold.PLP.Chemscore.CHOScore>
0.0000

> <Gold.PLP.Chemscore.Metal>
0.0000

> <Gold.Chemscore.Hbonds>
donor molecule, donor type, donor heavy atom, donor atom, acceptor molecule, acceptor atom, score
      L1  H     8    19       P1   582  0.69
      L1  H    10    20       P1   470  0.99

> <Gold.PLP.Chemscore.Internal.Correction>
0.0000

