#       Name:                EN300-207119_i001
#       Creating user name   aseyller
#       Creation time:       Fri Apr 21 16:30:29 2023


#       File generated by GOLD software.
#

@<TRIPOS>MOLECULE
EN300-207119_i001|aminophenols|mol2|38|dock6
    20    20     1
SMALL
USER_CHARGES


@<TRIPOS>ATOM
      1 C1          31.1780  35.8026  38.7221 C.3            1 <1>                0.0000
      2 C2          29.8818  36.4811  38.3611 C.2            1 <1>                0.0000
      3 O3          29.7964  37.1176  37.3319 O.2            1 <1>                0.0000
      4 C4          28.7229  36.3721  39.2547 C.ar           1 <1>                0.0000
      5 C5          28.8495  35.7313  40.4936 C.ar           1 <1>                0.0000
      6 C6          27.7617  35.6300  41.3300 C.ar           1 <1>                0.0000
      7 C7          26.5344  36.1630  40.9482 C.ar           1 <1>                0.0000
      8 N8          25.4379  36.0582  41.7980 N.pl3          1 <1>                0.0000
      9 C9          26.4008  36.8037  39.7139 C.ar           1 <1>                0.0000
     10 O10         25.1997  37.3240  39.3443 O.3            1 <1>                0.0000
     11 C11         27.4882  36.9140  38.8729 C.ar           1 <1>                0.0000
     12 H12         31.9174  35.9943  37.9445 H              1 <1>                0.0000
     13 H13         31.5407  36.1939  39.6726 H              1 <1>                0.0000
     14 H14         31.0137  34.7287  38.8103 H              1 <1>                0.0000
     15 H15         29.8008  35.3163  40.7923 H              1 <1>                0.0000
     16 H16         27.8606  35.1352  42.2849 H              1 <1>                0.0000
     17 H17         27.3863  37.4093  37.9186 H              1 <1>                0.0000
     18 H18         25.5294  35.6141  42.6554 H              1 <1>                0.0000
     19 H19         24.5817  36.4293  41.5329 H              1 <1>                0.0000
     20 H20         24.4379  36.8427  39.6950 H              1 <1>                0.0000
@<TRIPOS>BOND
    1    1    2 1     
    2    1   12 1     
    3    1   13 1     
    4    1   14 1     
    5    2    3 2     
    6    2    4 1     
    7    4    5 ar    
    8    4   11 ar    
    9    5    6 ar    
   10    5   15 1     
   11    6    7 ar    
   12    6   16 1     
   13    7    8 1     
   14    7    9 ar    
   15    8   18 1     
   16    8   19 1     
   17    9   10 1     
   18    9   11 ar    
   19   10   20 1     
   20   11   17 1     
@<TRIPOS>SUBSTRUCTURE
      1 ****           1
@<TRIPOS>SET
DONOR_HYDROGENS      STATIC     ATOMS    <user>   **** ""
3 18 19 20
ATOM$RED        STATIC     ATOMS    COLORGROUP SYSTEM
3 18 19 20
@<TRIPOS>COMMENT
> <Gold.Version>
2022.2.0

> <Gold.Id.Protein>
1qkm|1qkm_protein|mol2

> <Gold.Protein.RotatedTorsions>
[  496  491  490  487 ] final -102.96 input  -89.99 | X-H torsion

> <Gold.Protein.ActiveResidues>
 MET295  LEU298  THR299  LEU301  ALA302  GLU305  TRP335  MET336  LEU339  MET340 
 GLY342  LEU343  ARG346  PHE356  ILE373  ILE376  PHE377  LEU380  LYS471  GLY472 
 MET473  HIS475  LEU476  LEU477  ASN478  MET479  VAL484  VAL487 

> <Gold.Protein.RotatedAtoms>
   36.8768   34.5482   40.9378 H   0  0  0  0  0  0  0  0  0  0  0  0  # atno 496  bound_to 491 

> <Gold.Score>
     Score     S(PLP)   S(hbond)     S(cho)   S(metal)  DE(clash)   DE(tors)     intcor
     41.27     -36.19       1.70       0.00       0.00       0.00       0.01       0.00

> <Gold.PLP.Fitness>
41.2700

> <Gold.PLP.PLP>
-36.1883

> <Gold.PLP.part.hbond>
-1.9498

> <Gold.PLP.part.metal>
0.0000

> <Gold.PLP.part.buried>
-2.5667

> <Gold.PLP.part.nonpolar>
-32.3689

> <Gold.PLP.part.repulsive>
0.0950

> <Gold.PLP.ligand.clash>
0.0000

> <Gold.PLP.ligand.torsion>
0.0122

> <Gold.PLP.Chemscore.Hbond>
1.7020

> <Gold.PLP.Chemscore.CHOScore>
0.0000

> <Gold.PLP.Chemscore.Metal>
0.0000

> <Gold.Chemscore.Hbonds>
donor molecule, donor type, donor heavy atom, donor atom, acceptor molecule, acceptor atom, score
      L1  H     8    18       P1   582  1.00
      L1  H    10    20       P1  1131  0.70

> <Gold.PLP.Chemscore.Internal.Correction>
0.0000

