#       Name:                EN300-207119_i001
#       Creating user name   aseyller
#       Creation time:       Fri Apr 21 16:30:27 2023


#       File generated by GOLD software.
#

@<TRIPOS>MOLECULE
EN300-207119_i001|aminophenols|mol2|38|dock1
    20    20     1
SMALL
USER_CHARGES


@<TRIPOS>ATOM
      1 C1          29.1920  38.3925  36.9878 C.3            1 <1>                0.0000
      2 C2          29.3879  37.4302  38.1309 C.2            1 <1>                0.0000
      3 O3          30.4817  36.9478  38.3371 O.2            1 <1>                0.0000
      4 C4          28.2554  37.0766  38.9946 C.ar           1 <1>                0.0000
      5 C5          26.9435  37.3059  38.5611 C.ar           1 <1>                0.0000
      6 C6          25.8830  36.9737  39.3723 C.ar           1 <1>                0.0000
      7 C7          26.1102  36.4099  40.6240 C.ar           1 <1>                0.0000
      8 N8          25.0343  36.0754  41.4400 N.pl3          1 <1>                0.0000
      9 C9          27.4162  36.1783  41.0629 C.ar           1 <1>                0.0000
     10 O10         27.6345  35.6266  42.2868 O.3            1 <1>                0.0000
     11 C11         28.4839  36.5034  40.2528 C.ar           1 <1>                0.0000
     12 H12         30.1376  38.5316  36.4639 H              1 <1>                0.0000
     13 H13         28.4500  37.9908  36.2978 H              1 <1>                0.0000
     14 H14         28.8468  39.3511  37.3749 H              1 <1>                0.0000
     15 H15         26.7642  37.7437  37.5902 H              1 <1>                0.0000
     16 H16         24.8719  37.1513  39.0370 H              1 <1>                0.0000
     17 H17         29.4939  36.3246  40.5908 H              1 <1>                0.0000
     18 H18         24.1271  36.2353  41.1363 H              1 <1>                0.0000
     19 H19         25.1914  35.6825  42.3129 H              1 <1>                0.0000
     20 H20         26.8873  35.1155  42.6267 H              1 <1>                0.0000
@<TRIPOS>BOND
    1    1    2 1     
    2    1   12 1     
    3    1   13 1     
    4    1   14 1     
    5    2    3 2     
    6    2    4 1     
    7    4    5 ar    
    8    4   11 ar    
    9    5    6 ar    
   10    5   15 1     
   11    6    7 ar    
   12    6   16 1     
   13    7    8 1     
   14    7    9 ar    
   15    8   18 1     
   16    8   19 1     
   17    9   10 1     
   18    9   11 ar    
   19   10   20 1     
   20   11   17 1     
@<TRIPOS>SUBSTRUCTURE
      1 ****           1
@<TRIPOS>SET
DONOR_HYDROGENS      STATIC     ATOMS    <user>   **** ""
3 18 19 20
ATOM$RED        STATIC     ATOMS    COLORGROUP SYSTEM
3 18 19 20
@<TRIPOS>COMMENT
> <Gold.Version>
2022.2.0

> <Gold.Id.Protein>
1qkm|1qkm_protein|mol2

> <Gold.Protein.RotatedTorsions>
[  496  491  490  487 ] final    0.69 input  -89.99 | X-H torsion

> <Gold.Protein.ActiveResidues>
 MET295  LEU298  THR299  LEU301  ALA302  GLU305  TRP335  MET336  LEU339  MET340 
 GLY342  LEU343  ARG346  PHE356  ILE373  ILE376  PHE377  LEU380  LYS471  GLY472 
 MET473  HIS475  LEU476  LEU477  ASN478  MET479  VAL484  VAL487 

> <Gold.Protein.RotatedAtoms>
   36.2601   34.2038   42.2417 H   0  0  0  0  0  0  0  0  0  0  0  0  # atno 496  bound_to 491 

> <Gold.Score>
     Score     S(PLP)   S(hbond)     S(cho)   S(metal)  DE(clash)   DE(tors)     intcor
     46.30     -38.30       2.76       0.00       0.00       0.00       0.15       0.00

> <Gold.PLP.Fitness>
46.2993

> <Gold.PLP.PLP>
-38.3034

> <Gold.PLP.part.hbond>
-2.5981

> <Gold.PLP.part.metal>
0.0000

> <Gold.PLP.part.buried>
-4.5905

> <Gold.PLP.part.nonpolar>
-32.0283

> <Gold.PLP.part.repulsive>
0.1824

> <Gold.PLP.ligand.clash>
0.0000

> <Gold.PLP.ligand.torsion>
0.1458

> <Gold.PLP.Chemscore.Hbond>
2.7625

> <Gold.PLP.Chemscore.CHOScore>
0.0000

> <Gold.PLP.Chemscore.Metal>
0.0000

> <Gold.Chemscore.Hbonds>
donor molecule, donor type, donor heavy atom, donor atom, acceptor molecule, acceptor atom, score
      L1  H     8    18       P1  1131  0.80
      L1  H     8    19       P1   582  0.99
      L1  H    10    20       P1   582  0.98

> <Gold.PLP.Chemscore.Internal.Correction>
0.0000

