#       Name:                EN300-207119_i001
#       Creating user name   aseyller
#       Creation time:       Fri Apr 21 16:30:33 2023


#       File generated by GOLD software.
#

@<TRIPOS>MOLECULE
EN300-207119_i001|aminophenols|mol2|38|dock14
    20    20     1
SMALL
USER_CHARGES


@<TRIPOS>ATOM
      1 C1          31.0925  36.9826  37.6355 C.3            1 <1>                0.0000
      2 C2          29.7590  37.6738  37.7572 C.2            1 <1>                0.0000
      3 O3          29.4794  38.5883  37.0107 O.2            1 <1>                0.0000
      4 C4          28.7987  37.2409  38.7789 C.ar           1 <1>                0.0000
      5 C5          29.2487  36.5889  39.9339 C.ar           1 <1>                0.0000
      6 C6          28.3467  36.1836  40.8906 C.ar           1 <1>                0.0000
      7 C7          26.9869  36.4199  40.7140 C.ar           1 <1>                0.0000
      8 N8          26.0793  36.0086  41.6848 N.pl3          1 <1>                0.0000
      9 C9          26.5310  37.0699  39.5645 C.ar           1 <1>                0.0000
     10 O10         25.2010  37.2997  39.3954 O.3            1 <1>                0.0000
     11 C11         27.4297  37.4840  38.6040 C.ar           1 <1>                0.0000
     12 H12         31.6656  37.4382  36.8280 H              1 <1>                0.0000
     13 H13         31.6410  37.0836  38.5720 H              1 <1>                0.0000
     14 H14         30.9357  35.9261  37.4185 H              1 <1>                0.0000
     15 H15         30.3035  36.4038  40.0734 H              1 <1>                0.0000
     16 H16         28.6950  35.6806  41.7806 H              1 <1>                0.0000
     17 H17         27.0785  37.9869  37.7150 H              1 <1>                0.0000
     18 H18         26.3946  35.5576  42.4836 H              1 <1>                0.0000
     19 H19         25.1310  36.1726  41.5628 H              1 <1>                0.0000
     20 H20         24.6336  36.5962  39.7392 H              1 <1>                0.0000
@<TRIPOS>BOND
    1    1    2 1     
    2    1   12 1     
    3    1   13 1     
    4    1   14 1     
    5    2    3 2     
    6    2    4 1     
    7    4    5 ar    
    8    4   11 ar    
    9    5    6 ar    
   10    5   15 1     
   11    6    7 ar    
   12    6   16 1     
   13    7    8 1     
   14    7    9 ar    
   15    8   18 1     
   16    8   19 1     
   17    9   10 1     
   18    9   11 ar    
   19   10   20 1     
   20   11   17 1     
@<TRIPOS>SUBSTRUCTURE
      1 ****           1
@<TRIPOS>SET
DONOR_HYDROGENS      STATIC     ATOMS    <user>   **** ""
3 18 19 20
ATOM$RED        STATIC     ATOMS    COLORGROUP SYSTEM
3 18 19 20
@<TRIPOS>COMMENT
> <Gold.Version>
2022.2.0

> <Gold.Id.Protein>
1qkm|1qkm_protein|mol2

> <Gold.Protein.RotatedTorsions>
[  496  491  490  487 ] final    3.30 input  -89.99 | X-H torsion

> <Gold.Protein.ActiveResidues>
 MET295  LEU298  THR299  LEU301  ALA302  GLU305  TRP335  MET336  LEU339  MET340 
 GLY342  LEU343  ARG346  PHE356  ILE373  ILE376  PHE377  LEU380  LYS471  GLY472 
 MET473  HIS475  LEU476  LEU477  ASN478  MET479  VAL484  VAL487 

> <Gold.Protein.RotatedAtoms>
   36.2624   34.1661   42.2621 H   0  0  0  0  0  0  0  0  0  0  0  0  # atno 496  bound_to 491 

> <Gold.Score>
     Score     S(PLP)   S(hbond)     S(cho)   S(metal)  DE(clash)   DE(tors)     intcor
     38.00     -34.65       1.29       0.00       0.00       0.00       0.26       0.00

> <Gold.PLP.Fitness>
37.9993

> <Gold.PLP.PLP>
-34.6454

> <Gold.PLP.part.hbond>
-2.0000

> <Gold.PLP.part.metal>
0.0000

> <Gold.PLP.part.buried>
-3.6506

> <Gold.PLP.part.nonpolar>
-28.6327

> <Gold.PLP.part.repulsive>
0.0642

> <Gold.PLP.ligand.clash>
0.0000

> <Gold.PLP.ligand.torsion>
0.2573

> <Gold.PLP.Chemscore.Hbond>
1.2895

> <Gold.PLP.Chemscore.CHOScore>
0.0000

> <Gold.PLP.Chemscore.Metal>
0.0000

> <Gold.Chemscore.Hbonds>
donor molecule, donor type, donor heavy atom, donor atom, acceptor molecule, acceptor atom, score
      L1  H     8    18       P1   582  0.98
      L1  H    10    20       P1  1131  0.31

> <Gold.PLP.Chemscore.Internal.Correction>
0.0000

