#       Name:                EN300-207119_i001
#       Creating user name   aseyller
#       Creation time:       Fri Apr 21 16:30:36 2023


#       File generated by GOLD software.
#

@<TRIPOS>MOLECULE
EN300-207119_i001|aminophenols|mol2|38|dock18
    20    20     1
SMALL
USER_CHARGES


@<TRIPOS>ATOM
      1 C1          30.0442  38.6769  36.4763 C.3            1 <1>                0.0000
      2 C2          30.0762  37.6534  37.5819 C.2            1 <1>                0.0000
      3 O3          31.1176  37.0995  37.8658 O.2            1 <1>                0.0000
      4 C4          28.8478  37.3266  38.3150 C.ar           1 <1>                0.0000
      5 C5          27.6088  37.7825  37.8473 C.ar           1 <1>                0.0000
      6 C6          26.4581  37.4751  38.5361 C.ar           1 <1>                0.0000
      7 C7          26.5215  36.7116  39.6977 C.ar           1 <1>                0.0000
      8 N8          25.3549  36.4033  40.3899 N.pl3          1 <1>                0.0000
      9 C9          27.7540  36.2534  40.1699 C.ar           1 <1>                0.0000
     10 O10         27.8121  35.5068  41.3055 O.3            1 <1>                0.0000
     11 C11         28.9108  36.5528  39.4816 C.ar           1 <1>                0.0000
     12 H12         31.0425  38.7849  36.0521 H              1 <1>                0.0000
     13 H13         29.3527  38.3509  35.6993 H              1 <1>                0.0000
     14 H14         29.7143  39.6350  36.8775 H              1 <1>                0.0000
     15 H15         27.5566  38.3756  36.9463 H              1 <1>                0.0000
     16 H16         25.5033  37.8276  38.1746 H              1 <1>                0.0000
     17 H17         29.8641  36.1988  39.8455 H              1 <1>                0.0000
     18 H18         24.4986  36.7204  40.0629 H              1 <1>                0.0000
     19 H19         25.3979  35.8712  41.1999 H              1 <1>                0.0000
     20 H20         26.9923  35.5062  41.8181 H              1 <1>                0.0000
@<TRIPOS>BOND
    1    1    2 1     
    2    1   12 1     
    3    1   13 1     
    4    1   14 1     
    5    2    3 2     
    6    2    4 1     
    7    4    5 ar    
    8    4   11 ar    
    9    5    6 ar    
   10    5   15 1     
   11    6    7 ar    
   12    6   16 1     
   13    7    8 1     
   14    7    9 ar    
   15    8   18 1     
   16    8   19 1     
   17    9   10 1     
   18    9   11 ar    
   19   10   20 1     
   20   11   17 1     
@<TRIPOS>SUBSTRUCTURE
      1 ****           1
@<TRIPOS>SET
DONOR_HYDROGENS      STATIC     ATOMS    <user>   **** ""
3 18 19 20
ATOM$RED        STATIC     ATOMS    COLORGROUP SYSTEM
3 18 19 20
@<TRIPOS>COMMENT
> <Gold.Version>
2022.2.0

> <Gold.Id.Protein>
1qkm|1qkm_protein|mol2

> <Gold.Protein.RotatedTorsions>
[  496  491  490  487 ] final  108.70 input  -89.99 | X-H torsion

> <Gold.Protein.ActiveResidues>
 MET295  LEU298  THR299  LEU301  ALA302  GLU305  TRP335  MET336  LEU339  MET340 
 GLY342  LEU343  ARG346  PHE356  ILE373  ILE376  PHE377  LEU380  LYS471  GLY472 
 MET473  HIS475  LEU476  LEU477  ASN478  MET479  VAL484  VAL487 

> <Gold.Protein.RotatedAtoms>
   36.9882   32.9445   41.7799 H   0  0  0  0  0  0  0  0  0  0  0  0  # atno 496  bound_to 491 

> <Gold.Score>
     Score     S(PLP)   S(hbond)     S(cho)   S(metal)  DE(clash)   DE(tors)     intcor
     35.15     -33.29       0.66       0.00       0.00       0.00       0.05       0.00

> <Gold.PLP.Fitness>
35.1539

> <Gold.PLP.PLP>
-33.2937

> <Gold.PLP.part.hbond>
-1.5390

> <Gold.PLP.part.metal>
0.0000

> <Gold.PLP.part.buried>
-3.7055

> <Gold.PLP.part.nonpolar>
-29.6224

> <Gold.PLP.part.repulsive>
0.1349

> <Gold.PLP.ligand.clash>
0.0000

> <Gold.PLP.ligand.torsion>
0.0543

> <Gold.PLP.Chemscore.Hbond>
0.6562

> <Gold.PLP.Chemscore.CHOScore>
0.0000

> <Gold.PLP.Chemscore.Metal>
0.0000

> <Gold.Chemscore.Hbonds>
donor molecule, donor type, donor heavy atom, donor atom, acceptor molecule, acceptor atom, score
      L1  H     8    18       P1  1131  0.53
      L1  H    10    20       P1   582  0.13

> <Gold.PLP.Chemscore.Internal.Correction>
0.0000

