#       Name:                EN300-207119_i001
#       Creating user name   aseyller
#       Creation time:       Fri Apr 21 16:30:32 2023


#       File generated by GOLD software.
#

@<TRIPOS>MOLECULE
EN300-207119_i001|aminophenols|mol2|38|dock12
    20    20     1
SMALL
USER_CHARGES


@<TRIPOS>ATOM
      1 C1          33.6011  36.6994  34.8914 C.3            1 <1>                0.0000
      2 C2          32.2104  37.1662  35.2364 C.2            1 <1>                0.0000
      3 O3          31.5827  37.8389  34.4457 O.2            1 <1>                0.0000
      4 C4          31.6154  36.8070  36.5288 C.ar           1 <1>                0.0000
      5 C5          32.3412  36.0363  37.4459 C.ar           1 <1>                0.0000
      6 C6          31.7815  35.7005  38.6571 C.ar           1 <1>                0.0000
      7 C7          30.4949  36.1248  38.9743 C.ar           1 <1>                0.0000
      8 N8          29.9340  35.7829  40.2006 N.pl3          1 <1>                0.0000
      9 C9          29.7652  36.8939  38.0644 C.ar           1 <1>                0.0000
     10 O10         28.5078  37.3073  38.3781 O.3            1 <1>                0.0000
     11 C11         30.3218  37.2391  36.8508 C.ar           1 <1>                0.0000
     12 H12         33.8700  37.0611  33.8989 H              1 <1>                0.0000
     13 H13         34.3076  37.0897  35.6240 H              1 <1>                0.0000
     14 H14         33.6317  35.6100  34.9016 H              1 <1>                0.0000
     15 H15         33.3399  35.7053  37.2021 H              1 <1>                0.0000
     16 H16         32.3421  35.1059  39.3632 H              1 <1>                0.0000
     17 H17         29.7588  37.8339  36.1467 H              1 <1>                0.0000
     18 H18         30.4398  35.2493  40.8334 H              1 <1>                0.0000
     19 H19         29.0371  36.0779  40.4229 H              1 <1>                0.0000
     20 H20         28.4432  37.7571  39.2316 H              1 <1>                0.0000
@<TRIPOS>BOND
    1    1    2 1     
    2    1   12 1     
    3    1   13 1     
    4    1   14 1     
    5    2    3 2     
    6    2    4 1     
    7    4    5 ar    
    8    4   11 ar    
    9    5    6 ar    
   10    5   15 1     
   11    6    7 ar    
   12    6   16 1     
   13    7    8 1     
   14    7    9 ar    
   15    8   18 1     
   16    8   19 1     
   17    9   10 1     
   18    9   11 ar    
   19   10   20 1     
   20   11   17 1     
@<TRIPOS>SUBSTRUCTURE
      1 ****           1
@<TRIPOS>SET
DONOR_HYDROGENS      STATIC     ATOMS    <user>   **** ""
3 18 19 20
ATOM$RED        STATIC     ATOMS    COLORGROUP SYSTEM
3 18 19 20
@<TRIPOS>COMMENT
> <Gold.Version>
2022.2.0

> <Gold.Id.Protein>
1qkm|1qkm_protein|mol2

> <Gold.Protein.RotatedTorsions>
[  496  491  490  487 ] final  -77.71 input  -89.99 | X-H torsion

> <Gold.Protein.ActiveResidues>
 MET295  LEU298  THR299  LEU301  ALA302  GLU305  TRP335  MET336  LEU339  MET340 
 GLY342  LEU343  ARG346  PHE356  ILE373  ILE376  PHE377  LEU380  LYS471  GLY472 
 MET473  HIS475  LEU476  LEU477  ASN478  MET479  VAL484  VAL487 

> <Gold.Protein.RotatedAtoms>
   36.6454   34.7147   41.2358 H   0  0  0  0  0  0  0  0  0  0  0  0  # atno 496  bound_to 491 

> <Gold.Score>
     Score     S(PLP)   S(hbond)     S(cho)   S(metal)  DE(clash)   DE(tors)     intcor
     35.88     -32.90       0.99       0.00       0.00       0.00       0.00       0.00

> <Gold.PLP.Fitness>
35.8785

> <Gold.PLP.PLP>
-32.9026

> <Gold.PLP.part.hbond>
-1.0000

> <Gold.PLP.part.metal>
0.0000

> <Gold.PLP.part.buried>
-3.8897

> <Gold.PLP.part.nonpolar>
-27.6554

> <Gold.PLP.part.repulsive>
0.1790

> <Gold.PLP.ligand.clash>
0.0000

> <Gold.PLP.ligand.torsion>
0.0000

> <Gold.PLP.Chemscore.Hbond>
0.9920

> <Gold.PLP.Chemscore.CHOScore>
0.0000

> <Gold.PLP.Chemscore.Metal>
0.0000

> <Gold.Chemscore.Hbonds>
donor molecule, donor type, donor heavy atom, donor atom, acceptor molecule, acceptor atom, score
      L1  H     8    18       P1   470  0.99

> <Gold.PLP.Chemscore.Internal.Correction>
0.0000

