#       Name:                EN300-207119_i001
#       Creating user name   aseyller
#       Creation time:       Fri Apr 21 16:30:27 2023


#       File generated by GOLD software.
#

@<TRIPOS>MOLECULE
EN300-207119_i001|aminophenols|mol2|38|dock2
    20    20     1
SMALL
USER_CHARGES


@<TRIPOS>ATOM
      1 C1          30.6555  36.8292  38.3081 C.3            1 <1>                0.0000
      2 C2          29.2707  37.3482  38.0185 C.2            1 <1>                0.0000
      3 O3          29.0746  38.0416  37.0426 O.2            1 <1>                0.0000
      4 C4          28.1595  37.0150  38.9171 C.ar           1 <1>                0.0000
      5 C5          26.8375  37.2364  38.5107 C.ar           1 <1>                0.0000
      6 C6          25.7969  36.9234  39.3547 C.ar           1 <1>                0.0000
      7 C7          26.0542  36.3868  40.6125 C.ar           1 <1>                0.0000
      8 N8          24.9982  36.0717  41.4616 N.pl3          1 <1>                0.0000
      9 C9          27.3703  36.1632  41.0243 C.ar           1 <1>                0.0000
     10 O10         27.6180  35.6380  42.2544 O.3            1 <1>                0.0000
     11 C11         28.4181  36.4691  40.1815 C.ar           1 <1>                0.0000
     12 H12         31.3428  37.1778  37.5373 H              1 <1>                0.0000
     13 H13         30.9846  37.1949  39.2807 H              1 <1>                0.0000
     14 H14         30.6409  35.7394  38.3158 H              1 <1>                0.0000
     15 H15         26.6349  37.6531  37.5352 H              1 <1>                0.0000
     16 H16         24.7780  37.0950  39.0403 H              1 <1>                0.0000
     17 H17         29.4360  36.2964  40.4987 H              1 <1>                0.0000
     18 H18         24.0840  36.2260  41.1767 H              1 <1>                0.0000
     19 H19         25.1763  35.6976  42.3388 H              1 <1>                0.0000
     20 H20         26.8982  35.0936  42.6017 H              1 <1>                0.0000
@<TRIPOS>BOND
    1    1    2 1     
    2    1   12 1     
    3    1   13 1     
    4    1   14 1     
    5    2    3 2     
    6    2    4 1     
    7    4    5 ar    
    8    4   11 ar    
    9    5    6 ar    
   10    5   15 1     
   11    6    7 ar    
   12    6   16 1     
   13    7    8 1     
   14    7    9 ar    
   15    8   18 1     
   16    8   19 1     
   17    9   10 1     
   18    9   11 ar    
   19   10   20 1     
   20   11   17 1     
@<TRIPOS>SUBSTRUCTURE
      1 ****           1
@<TRIPOS>SET
DONOR_HYDROGENS      STATIC     ATOMS    <user>   **** ""
3 18 19 20
ATOM$RED        STATIC     ATOMS    COLORGROUP SYSTEM
3 18 19 20
@<TRIPOS>COMMENT
> <Gold.Version>
2022.2.0

> <Gold.Id.Protein>
1qkm|1qkm_protein|mol2

> <Gold.Protein.RotatedTorsions>
[  496  491  490  487 ] final   87.75 input  -89.99 | X-H torsion

> <Gold.Protein.ActiveResidues>
 MET295  LEU298  THR299  LEU301  ALA302  GLU305  TRP335  MET336  LEU339  MET340 
 GLY342  LEU343  ARG346  PHE356  ILE373  ILE376  PHE377  LEU380  LYS471  GLY472 
 MET473  HIS475  LEU476  LEU477  ASN478  MET479  VAL484  VAL487 

> <Gold.Protein.RotatedAtoms>
   36.7995   33.0373   42.0507 H   0  0  0  0  0  0  0  0  0  0  0  0  # atno 496  bound_to 491 

> <Gold.Score>
     Score     S(PLP)   S(hbond)     S(cho)   S(metal)  DE(clash)   DE(tors)     intcor
     46.86     -38.62       2.81       0.00       0.00       0.00       0.09       0.00

> <Gold.PLP.Fitness>
46.8609

> <Gold.PLP.PLP>
-38.6176

> <Gold.PLP.part.hbond>
-2.6484

> <Gold.PLP.part.metal>
0.0000

> <Gold.PLP.part.buried>
-4.8452

> <Gold.PLP.part.nonpolar>
-32.4542

> <Gold.PLP.part.repulsive>
0.1563

> <Gold.PLP.ligand.clash>
0.0000

> <Gold.PLP.ligand.torsion>
0.0874

> <Gold.PLP.Chemscore.Hbond>
2.8060

> <Gold.PLP.Chemscore.CHOScore>
0.0000

> <Gold.PLP.Chemscore.Metal>
0.0000

> <Gold.Chemscore.Hbonds>
donor molecule, donor type, donor heavy atom, donor atom, acceptor molecule, acceptor atom, score
      L1  H     8    18       P1  1131  0.81
      L1  H     8    19       P1   582  1.00
      L1  H    10    20       P1   582  1.00

> <Gold.PLP.Chemscore.Internal.Correction>
0.0000

