#       Name:                EN300-207119_i001
#       Creating user name   aseyller
#       Creation time:       Fri Apr 21 16:30:36 2023


#       File generated by GOLD software.
#

@<TRIPOS>MOLECULE
EN300-207119_i001|aminophenols|mol2|38|dock19
    20    20     1
SMALL
USER_CHARGES


@<TRIPOS>ATOM
      1 C1          25.8569  37.4635  39.0953 C.3            1 <1>                0.0000
      2 C2          26.9234  36.5883  39.7015 C.2            1 <1>                0.0000
      3 O3          26.6597  35.8794  40.6501 O.2            1 <1>                0.0000
      4 C4          28.2811  36.5936  39.1447 C.ar           1 <1>                0.0000
      5 C5          28.6560  37.5748  38.2181 C.ar           1 <1>                0.0000
      6 C6          29.9294  37.5780  37.6970 C.ar           1 <1>                0.0000
      7 C7          30.8473  36.6083  38.0883 C.ar           1 <1>                0.0000
      8 N8          32.1337  36.6166  37.5588 N.pl3          1 <1>                0.0000
      9 C9          30.4803  35.6267  39.0123 C.ar           1 <1>                0.0000
     10 O10         31.3804  34.6805  39.3928 O.3            1 <1>                0.0000
     11 C11         29.2075  35.6206  39.5430 C.ar           1 <1>                0.0000
     12 H12         24.9218  37.3256  39.6381 H              1 <1>                0.0000
     13 H13         26.1637  38.5074  39.1594 H              1 <1>                0.0000
     14 H14         25.7137  37.1904  38.0499 H              1 <1>                0.0000
     15 H15         27.9455  38.3284  37.9123 H              1 <1>                0.0000
     16 H16         30.2171  38.3349  36.9823 H              1 <1>                0.0000
     17 H17         28.9227  34.8624  40.2576 H              1 <1>                0.0000
     18 H18         32.3899  37.2978  36.9175 H              1 <1>                0.0000
     19 H19         32.7745  35.9409  37.8307 H              1 <1>                0.0000
     20 H20         31.5507  34.6601  40.3444 H              1 <1>                0.0000
@<TRIPOS>BOND
    1    1    2 1     
    2    1   12 1     
    3    1   13 1     
    4    1   14 1     
    5    2    3 2     
    6    2    4 1     
    7    4    5 ar    
    8    4   11 ar    
    9    5    6 ar    
   10    5   15 1     
   11    6    7 ar    
   12    6   16 1     
   13    7    8 1     
   14    7    9 ar    
   15    8   18 1     
   16    8   19 1     
   17    9   10 1     
   18    9   11 ar    
   19   10   20 1     
   20   11   17 1     
@<TRIPOS>SUBSTRUCTURE
      1 ****           1
@<TRIPOS>SET
DONOR_HYDROGENS      STATIC     ATOMS    <user>   **** ""
3 18 19 20
ATOM$RED        STATIC     ATOMS    COLORGROUP SYSTEM
3 18 19 20
@<TRIPOS>COMMENT
> <Gold.Version>
2022.2.0

> <Gold.Id.Protein>
1qkm|1qkm_protein|mol2

> <Gold.Protein.RotatedTorsions>
[  496  491  490  487 ] final  -99.52 input  -89.99 | X-H torsion

> <Gold.Protein.ActiveResidues>
 MET295  LEU298  THR299  LEU301  ALA302  GLU305  TRP335  MET336  LEU339  MET340 
 GLY342  LEU343  ARG346  PHE356  ILE373  ILE376  PHE377  LEU380  LYS471  GLY472 
 MET473  HIS475  LEU476  LEU477  ASN478  MET479  VAL484  VAL487 

> <Gold.Protein.RotatedAtoms>
   36.8453   34.5799   40.9725 H   0  0  0  0  0  0  0  0  0  0  0  0  # atno 496  bound_to 491 

> <Gold.Score>
     Score     S(PLP)   S(hbond)     S(cho)   S(metal)  DE(clash)   DE(tors)     intcor
     36.09     -33.21       1.00       0.00       0.00       0.00       0.06       0.00

> <Gold.PLP.Fitness>
36.0940

> <Gold.PLP.PLP>
-33.2126

> <Gold.PLP.part.hbond>
-1.0000

> <Gold.PLP.part.metal>
0.0000

> <Gold.PLP.part.buried>
-2.8790

> <Gold.PLP.part.nonpolar>
-29.3806

> <Gold.PLP.part.repulsive>
0.1330

> <Gold.PLP.ligand.clash>
0.0000

> <Gold.PLP.ligand.torsion>
0.0593

> <Gold.PLP.Chemscore.Hbond>
1.0000

> <Gold.PLP.Chemscore.CHOScore>
0.0000

> <Gold.PLP.Chemscore.Metal>
0.0000

> <Gold.Chemscore.Hbonds>
donor molecule, donor type, donor heavy atom, donor atom, acceptor molecule, acceptor atom, score
      L1  H    10    20       P1   470  1.00

> <Gold.PLP.Chemscore.Internal.Correction>
0.0000

