#       Name:                EN300-207119_i001
#       Creating user name   aseyller
#       Creation time:       Fri Apr 21 16:30:33 2023


#       File generated by GOLD software.
#

@<TRIPOS>MOLECULE
EN300-207119_i001|aminophenols|mol2|38|dock13
    20    20     1
SMALL
USER_CHARGES


@<TRIPOS>ATOM
      1 C1          32.2260  37.9486  34.2046 C.3            1 <1>                0.0000
      2 C2          32.8005  36.9711  35.1972 C.2            1 <1>                0.0000
      3 O3          33.8587  36.4242  34.9672 O.2            1 <1>                0.0000
      4 C4          32.0798  36.6804  36.4421 C.ar           1 <1>                0.0000
      5 C5          32.6332  35.8059  37.3858 C.ar           1 <1>                0.0000
      6 C6          31.9559  35.5345  38.5523 C.ar           1 <1>                0.0000
      7 C7          30.7211  36.1272  38.7977 C.ar           1 <1>                0.0000
      8 N8          30.0409  35.8498  39.9791 N.pl3          1 <1>                0.0000
      9 C9          30.1632  37.0007  37.8609 C.ar           1 <1>                0.0000
     10 O10         28.9562  37.5785  38.1044 O.3            1 <1>                0.0000
     11 C11         30.8390  37.2817  36.6921 C.ar           1 <1>                0.0000
     12 H12         32.8964  38.0344  33.3495 H              1 <1>                0.0000
     13 H13         31.2515  37.5946  33.8682 H              1 <1>                0.0000
     14 H14         32.1145  38.9240  34.6781 H              1 <1>                0.0000
     15 H15         33.5912  35.3442  37.1977 H              1 <1>                0.0000
     16 H16         32.3835  34.8597  39.2791 H              1 <1>                0.0000
     17 H17         30.4088  37.9570  35.9672 H              1 <1>                0.0000
     18 H18         30.4273  35.2439  40.6306 H              1 <1>                0.0000
     19 H19         29.1799  36.2622  40.1513 H              1 <1>                0.0000
     20 H20         28.4000  37.6734  37.3191 H              1 <1>                0.0000
@<TRIPOS>BOND
    1    1    2 1     
    2    1   12 1     
    3    1   13 1     
    4    1   14 1     
    5    2    3 2     
    6    2    4 1     
    7    4    5 ar    
    8    4   11 ar    
    9    5    6 ar    
   10    5   15 1     
   11    6    7 ar    
   12    6   16 1     
   13    7    8 1     
   14    7    9 ar    
   15    8   18 1     
   16    8   19 1     
   17    9   10 1     
   18    9   11 ar    
   19   10   20 1     
   20   11   17 1     
@<TRIPOS>SUBSTRUCTURE
      1 ****           1
@<TRIPOS>SET
DONOR_HYDROGENS      STATIC     ATOMS    <user>   **** ""
3 18 19 20
ATOM$RED        STATIC     ATOMS    COLORGROUP SYSTEM
3 18 19 20
@<TRIPOS>COMMENT
> <Gold.Version>
2022.2.0

> <Gold.Id.Protein>
1qkm|1qkm_protein|mol2

> <Gold.Protein.RotatedTorsions>
[  496  491  490  487 ] final -133.66 input  -89.99 | X-H torsion

> <Gold.Protein.ActiveResidues>
 MET295  LEU298  THR299  LEU301  ALA302  GLU305  TRP335  MET336  LEU339  MET340 
 GLY342  LEU343  ARG346  PHE356  ILE373  ILE376  PHE377  LEU380  LYS471  GLY472 
 MET473  HIS475  LEU476  LEU477  ASN478  MET479  VAL484  VAL487 

> <Gold.Protein.RotatedAtoms>
   37.1313   34.1682   40.7375 H   0  0  0  0  0  0  0  0  0  0  0  0  # atno 496  bound_to 491 

> <Gold.Score>
     Score     S(PLP)   S(hbond)     S(cho)   S(metal)  DE(clash)   DE(tors)     intcor
     36.94     -34.35       0.86       0.00       0.00       0.00       0.00       0.00

> <Gold.PLP.Fitness>
36.9423

> <Gold.PLP.PLP>
-34.3542

> <Gold.PLP.part.hbond>
-1.0000

> <Gold.PLP.part.metal>
0.0000

> <Gold.PLP.part.buried>
-4.3882

> <Gold.PLP.part.nonpolar>
-29.6806

> <Gold.PLP.part.repulsive>
0.2200

> <Gold.PLP.ligand.clash>
0.0000

> <Gold.PLP.ligand.torsion>
0.0020

> <Gold.PLP.Chemscore.Hbond>
0.8640

> <Gold.PLP.Chemscore.CHOScore>
0.0000

> <Gold.PLP.Chemscore.Metal>
0.0000

> <Gold.Chemscore.Hbonds>
donor molecule, donor type, donor heavy atom, donor atom, acceptor molecule, acceptor atom, score
      L1  H     8    18       P1   470  0.86

> <Gold.PLP.Chemscore.Internal.Correction>
0.0000

