#       Name:                EN300-207119_i001
#       Creating user name   aseyller
#       Creation time:       Fri Apr 21 16:30:28 2023


#       File generated by GOLD software.
#

@<TRIPOS>MOLECULE
EN300-207119_i001|aminophenols|mol2|38|dock4
    20    20     1
SMALL
USER_CHARGES


@<TRIPOS>ATOM
      1 C1          29.5761  38.0854  36.5687 C.3            1 <1>                0.0000
      2 C2          30.0087  37.2559  37.7501 C.2            1 <1>                0.0000
      3 O3          31.1783  36.9670  37.8928 O.2            1 <1>                0.0000
      4 C4          29.0151  36.7975  38.7279 C.ar           1 <1>                0.0000
      5 C5          27.6547  36.7890  38.3951 C.ar           1 <1>                0.0000
      6 C6          26.7246  36.3589  39.3133 C.ar           1 <1>                0.0000
      7 C7          27.1320  35.9317  40.5734 C.ar           1 <1>                0.0000
      8 N8          26.1875  35.4973  41.4978 N.pl3          1 <1>                0.0000
      9 C9          28.4874  35.9374  40.9121 C.ar           1 <1>                0.0000
     10 O10         28.8820  35.5187  42.1446 O.3            1 <1>                0.0000
     11 C11         29.4257  36.3618  39.9949 C.ar           1 <1>                0.0000
     12 H12         30.4455  38.3295  35.9583 H              1 <1>                0.0000
     13 H13         28.8597  37.5214  35.9714 H              1 <1>                0.0000
     14 H14         29.1102  39.0054  36.9217 H              1 <1>                0.0000
     15 H15         27.3356  37.1204  37.4180 H              1 <1>                0.0000
     16 H16         25.6758  36.3532  39.0556 H              1 <1>                0.0000
     17 H17         30.4739  36.3663  40.2555 H              1 <1>                0.0000
     18 H18         25.2462  35.4925  41.2637 H              1 <1>                0.0000
     19 H19         26.4702  35.1994  42.3766 H              1 <1>                0.0000
     20 H20         29.8412  35.4561  42.2503 H              1 <1>                0.0000
@<TRIPOS>BOND
    1    1    2 1     
    2    1   12 1     
    3    1   13 1     
    4    1   14 1     
    5    2    3 2     
    6    2    4 1     
    7    4    5 ar    
    8    4   11 ar    
    9    5    6 ar    
   10    5   15 1     
   11    6    7 ar    
   12    6   16 1     
   13    7    8 1     
   14    7    9 ar    
   15    8   18 1     
   16    8   19 1     
   17    9   10 1     
   18    9   11 ar    
   19   10   20 1     
   20   11   17 1     
@<TRIPOS>SUBSTRUCTURE
      1 ****           1
@<TRIPOS>SET
DONOR_HYDROGENS      STATIC     ATOMS    <user>   **** ""
3 18 19 20
ATOM$RED        STATIC     ATOMS    COLORGROUP SYSTEM
3 18 19 20
@<TRIPOS>COMMENT
> <Gold.Version>
2022.2.0

> <Gold.Id.Protein>
1qkm|1qkm_protein|mol2

> <Gold.Protein.RotatedTorsions>
[  496  491  490  487 ] final   -6.32 input  -89.99 | X-H torsion

> <Gold.Protein.ActiveResidues>
 MET295  LEU298  THR299  LEU301  ALA302  GLU305  TRP335  MET336  LEU339  MET340 
 GLY342  LEU343  ARG346  PHE356  ILE373  ILE376  PHE377  LEU380  LYS471  GLY472 
 MET473  HIS475  LEU476  LEU477  ASN478  MET479  VAL484  VAL487 

> <Gold.Protein.RotatedAtoms>
   36.2595   34.3011   42.1799 H   0  0  0  0  0  0  0  0  0  0  0  0  # atno 496  bound_to 491 

> <Gold.Score>
     Score     S(PLP)   S(hbond)     S(cho)   S(metal)  DE(clash)   DE(tors)     intcor
     42.48     -36.88       1.96       0.00       0.00       0.00       0.14       0.00

> <Gold.PLP.Fitness>
42.4757

> <Gold.PLP.PLP>
-36.8811

> <Gold.PLP.part.hbond>
-2.7981

> <Gold.PLP.part.metal>
0.0000

> <Gold.PLP.part.buried>
-4.2871

> <Gold.PLP.part.nonpolar>
-30.9199

> <Gold.PLP.part.repulsive>
0.0581

> <Gold.PLP.ligand.clash>
0.0000

> <Gold.PLP.ligand.torsion>
0.1427

> <Gold.PLP.Chemscore.Hbond>
1.9600

> <Gold.PLP.Chemscore.CHOScore>
0.0000

> <Gold.PLP.Chemscore.Metal>
0.0000

> <Gold.Chemscore.Hbonds>
donor molecule, donor type, donor heavy atom, donor atom, acceptor molecule, acceptor atom, score
      L1  H     8    19       P1   582  0.96
      L1  H    10    20       P1   470  1.00

> <Gold.PLP.Chemscore.Internal.Correction>
0.0000

