#       Name:                EN300-207119_i001
#       Creating user name   aseyller
#       Creation time:       Fri Apr 21 16:30:29 2023


#       File generated by GOLD software.
#

@<TRIPOS>MOLECULE
EN300-207119_i001|aminophenols|mol2|38|dock5
    20    20     1
SMALL
USER_CHARGES


@<TRIPOS>ATOM
      1 C1          31.3843  37.2819  37.6068 C.3            1 <1>                0.0000
      2 C2          29.9342  37.6749  37.4894 C.2            1 <1>                0.0000
      3 O3          29.5704  38.3860  36.5763 O.2            1 <1>                0.0000
      4 C4          28.9622  37.1975  38.4797 C.ar           1 <1>                0.0000
      5 C5          27.5892  37.3041  38.2237 C.ar           1 <1>                0.0000
      6 C6          26.6794  36.8561  39.1535 C.ar           1 <1>                0.0000
      7 C7          27.1196  36.2967  40.3491 C.ar           1 <1>                0.0000
      8 N8          26.1953  35.8448  41.2855 N.pl3          1 <1>                0.0000
      9 C9          28.4875  36.1871  40.6110 C.ar           1 <1>                0.0000
     10 O10         28.9141  35.6392  41.7806 O.3            1 <1>                0.0000
     11 C11         29.4053  36.6288  39.6813 C.ar           1 <1>                0.0000
     12 H12         31.9490  37.7278  36.7881 H              1 <1>                0.0000
     13 H13         31.7812  37.6371  38.5578 H              1 <1>                0.0000
     14 H14         31.4716  36.1965  37.5594 H              1 <1>                0.0000
     15 H15         27.2448  37.7382  37.2968 H              1 <1>                0.0000
     16 H16         25.6210  36.9392  38.9551 H              1 <1>                0.0000
     17 H17         30.4630  36.5443  39.8825 H              1 <1>                0.0000
     18 H18         25.2453  35.9198  41.1046 H              1 <1>                0.0000
     19 H19         26.5009  35.4547  42.1194 H              1 <1>                0.0000
     20 H20         29.8724  35.5213  41.8332 H              1 <1>                0.0000
@<TRIPOS>BOND
    1    1    2 1     
    2    1   12 1     
    3    1   13 1     
    4    1   14 1     
    5    2    3 2     
    6    2    4 1     
    7    4    5 ar    
    8    4   11 ar    
    9    5    6 ar    
   10    5   15 1     
   11    6    7 ar    
   12    6   16 1     
   13    7    8 1     
   14    7    9 ar    
   15    8   18 1     
   16    8   19 1     
   17    9   10 1     
   18    9   11 ar    
   19   10   20 1     
   20   11   17 1     
@<TRIPOS>SUBSTRUCTURE
      1 ****           1
@<TRIPOS>SET
DONOR_HYDROGENS      STATIC     ATOMS    <user>   **** ""
3 18 19 20
ATOM$RED        STATIC     ATOMS    COLORGROUP SYSTEM
3 18 19 20
@<TRIPOS>COMMENT
> <Gold.Version>
2022.2.0

> <Gold.Id.Protein>
1qkm|1qkm_protein|mol2

> <Gold.Protein.RotatedTorsions>
[  496  491  490  487 ] final  -16.10 input  -89.99 | X-H torsion

> <Gold.Protein.ActiveResidues>
 MET295  LEU298  THR299  LEU301  ALA302  GLU305  TRP335  MET336  LEU339  MET340 
 GLY342  LEU343  ARG346  PHE356  ILE373  ILE376  PHE377  LEU380  LYS471  GLY472 
 MET473  HIS475  LEU476  LEU477  ASN478  MET479  VAL484  VAL487 

> <Gold.Protein.RotatedAtoms>
   36.2717   34.4251   42.0781 H   0  0  0  0  0  0  0  0  0  0  0  0  # atno 496  bound_to 491 

> <Gold.Score>
     Score     S(PLP)   S(hbond)     S(cho)   S(metal)  DE(clash)   DE(tors)     intcor
     41.66     -35.90       1.98       0.00       0.00       0.00       0.09       0.00

> <Gold.PLP.Fitness>
41.6556

> <Gold.PLP.PLP>
-35.9048

> <Gold.PLP.part.hbond>
-2.2378

> <Gold.PLP.part.metal>
0.0000

> <Gold.PLP.part.buried>
-4.4246

> <Gold.PLP.part.nonpolar>
-29.6181

> <Gold.PLP.part.repulsive>
0.0435

> <Gold.PLP.ligand.clash>
0.0000

> <Gold.PLP.ligand.torsion>
0.0886

> <Gold.PLP.Chemscore.Hbond>
1.9760

> <Gold.PLP.Chemscore.CHOScore>
0.0000

> <Gold.PLP.Chemscore.Metal>
0.0000

> <Gold.Chemscore.Hbonds>
donor molecule, donor type, donor heavy atom, donor atom, acceptor molecule, acceptor atom, score
      L1  H     8    19       P1   582  0.98
      L1  H    10    20       P1   470  1.00

> <Gold.PLP.Chemscore.Internal.Correction>
0.0000

