#       Name:                EN300-207119_i001
#       Creating user name   aseyller
#       Creation time:       Fri Apr 21 16:30:35 2023


#       File generated by GOLD software.
#

@<TRIPOS>MOLECULE
EN300-207119_i001|aminophenols|mol2|38|dock17
    20    20     1
SMALL
USER_CHARGES


@<TRIPOS>ATOM
      1 C1          32.2846  36.1036  37.9837 C.3            1 <1>                0.0000
      2 C2          31.0088  36.7946  37.5765 C.2            1 <1>                0.0000
      3 O3          30.9661  37.4302  36.5441 O.2            1 <1>                0.0000
      4 C4          29.8182  36.6988  38.4289 C.ar           1 <1>                0.0000
      5 C5          28.5765  37.1381  37.9524 C.ar           1 <1>                0.0000
      6 C6          27.4613  37.0475  38.7531 C.ar           1 <1>                0.0000
      7 C7          27.5633  36.5200  40.0367 C.ar           1 <1>                0.0000
      8 N8          26.4324  36.4303  40.8419 N.pl3          1 <1>                0.0000
      9 C9          28.7986  36.0798  40.5184 C.ar           1 <1>                0.0000
     10 O10         28.8945  35.5642  41.7735 O.3            1 <1>                0.0000
     11 C11         29.9196  36.1622  39.7194 C.ar           1 <1>                0.0000
     12 H12         33.0527  36.2865  37.2323 H              1 <1>                0.0000
     13 H13         32.6176  36.4928  38.9459 H              1 <1>                0.0000
     14 H14         32.1064  35.0316  38.0675 H              1 <1>                0.0000
     15 H15         28.4945  37.5483  36.9568 H              1 <1>                0.0000
     16 H16         26.5045  37.3870  38.3847 H              1 <1>                0.0000
     17 H17         30.8750  35.8219  40.0906 H              1 <1>                0.0000
     18 H18         25.5741  36.7352  40.5084 H              1 <1>                0.0000
     19 H19         26.5023  36.0628  41.7370 H              1 <1>                0.0000
     20 H20         29.7928  35.3123  42.0276 H              1 <1>                0.0000
@<TRIPOS>BOND
    1    1    2 1     
    2    1   12 1     
    3    1   13 1     
    4    1   14 1     
    5    2    3 2     
    6    2    4 1     
    7    4    5 ar    
    8    4   11 ar    
    9    5    6 ar    
   10    5   15 1     
   11    6    7 ar    
   12    6   16 1     
   13    7    8 1     
   14    7    9 ar    
   15    8   18 1     
   16    8   19 1     
   17    9   10 1     
   18    9   11 ar    
   19   10   20 1     
   20   11   17 1     
@<TRIPOS>SUBSTRUCTURE
      1 ****           1
@<TRIPOS>SET
DONOR_HYDROGENS      STATIC     ATOMS    <user>   **** ""
3 18 19 20
ATOM$RED        STATIC     ATOMS    COLORGROUP SYSTEM
3 18 19 20
@<TRIPOS>COMMENT
> <Gold.Version>
2022.2.0

> <Gold.Id.Protein>
1qkm|1qkm_protein|mol2

> <Gold.Protein.RotatedTorsions>
[  496  491  490  487 ] final -109.37 input  -89.99 | X-H torsion

> <Gold.Protein.ActiveResidues>
 MET295  LEU298  THR299  LEU301  ALA302  GLU305  TRP335  MET336  LEU339  MET340 
 GLY342  LEU343  ARG346  PHE356  ILE373  ILE376  PHE377  LEU380  LYS471  GLY472 
 MET473  HIS475  LEU476  LEU477  ASN478  MET479  VAL484  VAL487 

> <Gold.Protein.RotatedAtoms>
   36.9346   34.4824   40.8790 H   0  0  0  0  0  0  0  0  0  0  0  0  # atno 496  bound_to 491 

> <Gold.Score>
     Score     S(PLP)   S(hbond)     S(cho)   S(metal)  DE(clash)   DE(tors)     intcor
     35.49     -32.60       1.00       0.00       0.00       0.00       0.05       0.00

> <Gold.PLP.Fitness>
35.4946

> <Gold.PLP.PLP>
-32.6012

> <Gold.PLP.part.hbond>
-1.3880

> <Gold.PLP.part.metal>
0.0000

> <Gold.PLP.part.buried>
-3.3485

> <Gold.PLP.part.nonpolar>
-28.4293

> <Gold.PLP.part.repulsive>
0.0335

> <Gold.PLP.ligand.clash>
0.0000

> <Gold.PLP.ligand.torsion>
0.0533

> <Gold.PLP.Chemscore.Hbond>
1.0000

> <Gold.PLP.Chemscore.CHOScore>
0.0000

> <Gold.PLP.Chemscore.Metal>
0.0000

> <Gold.Chemscore.Hbonds>
donor molecule, donor type, donor heavy atom, donor atom, acceptor molecule, acceptor atom, score
      L1  H    10    20       P1   470  1.00

> <Gold.PLP.Chemscore.Internal.Correction>
0.0000

