#       Name:                EN300-207119_i001
#       Creating user name   aseyller
#       Creation time:       Fri Apr 21 16:30:31 2023


#       File generated by GOLD software.
#

@<TRIPOS>MOLECULE
EN300-207119_i001|aminophenols|mol2|38|dock10
    20    20     1
SMALL
USER_CHARGES


@<TRIPOS>ATOM
      1 C1          31.6347  38.4952  34.5148 C.3            1 <1>                0.0000
      2 C2          32.2135  37.3864  35.3553 C.2            1 <1>                0.0000
      3 O3          33.1902  36.7791  34.9693 O.2            1 <1>                0.0000
      4 C4          31.5956  37.0411  36.6408 C.ar           1 <1>                0.0000
      5 C5          30.6185  37.8765  37.1969 C.ar           1 <1>                0.0000
      6 C6          30.0404  37.5511  38.4023 C.ar           1 <1>                0.0000
      7 C7          30.4240  36.3930  39.0715 C.ar           1 <1>                0.0000
      8 N8          29.8358  36.0685  40.2898 N.pl3          1 <1>                0.0000
      9 C9          31.3979  35.5551  38.5227 C.ar           1 <1>                0.0000
     10 O10         31.7700  34.4236  39.1795 O.3            1 <1>                0.0000
     11 C11         31.9775  35.8719  37.3121 C.ar           1 <1>                0.0000
     12 H12         32.2226  38.6051  33.6035 H              1 <1>                0.0000
     13 H13         30.6039  38.2541  34.2551 H              1 <1>                0.0000
     14 H14         31.6589  39.4283  35.0775 H              1 <1>                0.0000
     15 H15         30.3192  38.7761  36.6798 H              1 <1>                0.0000
     16 H16         29.2873  38.1962  38.8302 H              1 <1>                0.0000
     17 H17         32.7303  35.2247  36.8867 H              1 <1>                0.0000
     18 H18         29.1592  36.6492  40.6717 H              1 <1>                0.0000
     19 H19         30.1025  35.2615  40.7574 H              1 <1>                0.0000
     20 H20         31.6477  34.4669  40.1377 H              1 <1>                0.0000
@<TRIPOS>BOND
    1    1    2 1     
    2    1   12 1     
    3    1   13 1     
    4    1   14 1     
    5    2    3 2     
    6    2    4 1     
    7    4    5 ar    
    8    4   11 ar    
    9    5    6 ar    
   10    5   15 1     
   11    6    7 ar    
   12    6   16 1     
   13    7    8 1     
   14    7    9 ar    
   15    8   18 1     
   16    8   19 1     
   17    9   10 1     
   18    9   11 ar    
   19   10   20 1     
   20   11   17 1     
@<TRIPOS>SUBSTRUCTURE
      1 ****           1
@<TRIPOS>SET
DONOR_HYDROGENS      STATIC     ATOMS    <user>   **** ""
3 18 19 20
ATOM$RED        STATIC     ATOMS    COLORGROUP SYSTEM
3 18 19 20
@<TRIPOS>COMMENT
> <Gold.Version>
2022.2.0

> <Gold.Id.Protein>
1qkm|1qkm_protein|mol2

> <Gold.Protein.RotatedTorsions>
[  496  491  490  487 ] final   23.73 input  -89.99 | X-H torsion

> <Gold.Protein.ActiveResidues>
 MET295  LEU298  THR299  LEU301  ALA302  GLU305  TRP335  MET336  LEU339  MET340 
 GLY342  LEU343  ARG346  PHE356  ILE373  ILE376  PHE377  LEU380  LYS471  GLY472 
 MET473  HIS475  LEU476  LEU477  ASN478  MET479  VAL484  VAL487 

> <Gold.Protein.RotatedAtoms>
   36.3171   33.8536   42.3683 H   0  0  0  0  0  0  0  0  0  0  0  0  # atno 496  bound_to 491 

> <Gold.Score>
     Score     S(PLP)   S(hbond)     S(cho)   S(metal)  DE(clash)   DE(tors)     intcor
     36.83     -32.98       1.32       0.00       0.00       0.00       0.05       0.00

> <Gold.PLP.Fitness>
36.8344

> <Gold.PLP.PLP>
-32.9751

> <Gold.PLP.part.hbond>
-2.0000

> <Gold.PLP.part.metal>
0.0000

> <Gold.PLP.part.buried>
-3.9692

> <Gold.PLP.part.nonpolar>
-27.3025

> <Gold.PLP.part.repulsive>
0.2036

> <Gold.PLP.ligand.clash>
0.0000

> <Gold.PLP.ligand.torsion>
0.0540

> <Gold.PLP.Chemscore.Hbond>
1.3224

> <Gold.PLP.Chemscore.CHOScore>
0.0000

> <Gold.PLP.Chemscore.Metal>
0.0000

> <Gold.Chemscore.Hbonds>
donor molecule, donor type, donor heavy atom, donor atom, acceptor molecule, acceptor atom, score
      L1  H     8    19       P1   470  0.32
      L1  H    10    20       P1   470  1.00

> <Gold.PLP.Chemscore.Internal.Correction>
0.0000

