#       Name:                EN300-207119_i001
#       Creating user name   aseyller
#       Creation time:       Fri Apr 21 16:30:37 2023


#       File generated by GOLD software.
#

@<TRIPOS>MOLECULE
EN300-207119_i001|aminophenols|mol2|38|dock20
    20    20     1
SMALL
USER_CHARGES


@<TRIPOS>ATOM
      1 C1          30.8770  37.8524  36.1981 C.3            1 <1>                0.0000
      2 C2          30.9864  37.1292  37.5157 C.2            1 <1>                0.0000
      3 O3          32.0572  36.6901  37.8795 O.2            1 <1>                0.0000
      4 C4          29.7978  36.9560  38.3585 C.ar           1 <1>                0.0000
      5 C5          28.5323  37.3000  37.8667 C.ar           1 <1>                0.0000
      6 C6          27.4189  37.1370  38.6585 C.ar           1 <1>                0.0000
      7 C7          27.5465  36.6306  39.9482 C.ar           1 <1>                0.0000
      8 N8          26.4174  36.4673  40.7444 N.pl3          1 <1>                0.0000
      9 C9          28.8056  36.2852  40.4453 C.ar           1 <1>                0.0000
     10 O10         28.9265  35.7901  41.7064 O.3            1 <1>                0.0000
     11 C11         29.9253  36.4406  39.6553 C.ar           1 <1>                0.0000
     12 H12         31.8550  37.8821  35.7176 H              1 <1>                0.0000
     13 H13         30.1713  37.3284  35.5535 H              1 <1>                0.0000
     14 H14         30.5258  38.8697  36.3701 H              1 <1>                0.0000
     15 H15         28.4304  37.6936  36.8662 H              1 <1>                0.0000
     16 H16         26.4437  37.4030  38.2782 H              1 <1>                0.0000
     17 H17         30.8992  36.1736  40.0384 H              1 <1>                0.0000
     18 H18         25.5425  36.7063  40.4003 H              1 <1>                0.0000
     19 H19         26.5050  36.1145  41.6437 H              1 <1>                0.0000
     20 H20         29.8352  35.5793  41.9607 H              1 <1>                0.0000
@<TRIPOS>BOND
    1    1    2 1     
    2    1   12 1     
    3    1   13 1     
    4    1   14 1     
    5    2    3 2     
    6    2    4 1     
    7    4    5 ar    
    8    4   11 ar    
    9    5    6 ar    
   10    5   15 1     
   11    6    7 ar    
   12    6   16 1     
   13    7    8 1     
   14    7    9 ar    
   15    8   18 1     
   16    8   19 1     
   17    9   10 1     
   18    9   11 ar    
   19   10   20 1     
   20   11   17 1     
@<TRIPOS>SUBSTRUCTURE
      1 ****           1
@<TRIPOS>SET
DONOR_HYDROGENS      STATIC     ATOMS    <user>   **** ""
3 18 19 20
ATOM$RED        STATIC     ATOMS    COLORGROUP SYSTEM
3 18 19 20
@<TRIPOS>COMMENT
> <Gold.Version>
2022.2.0

> <Gold.Id.Protein>
1qkm|1qkm_protein|mol2

> <Gold.Protein.RotatedTorsions>
[  496  491  490  487 ] final  162.12 input  -89.99 | X-H torsion

> <Gold.Protein.ActiveResidues>
 MET295  LEU298  THR299  LEU301  ALA302  GLU305  TRP335  MET336  LEU339  MET340 
 GLY342  LEU343  ARG346  PHE356  ILE373  ILE376  PHE377  LEU380  LYS471  GLY472 
 MET473  HIS475  LEU476  LEU477  ASN478  MET479  VAL484  VAL487 

> <Gold.Protein.RotatedAtoms>
   37.3020   33.2294   41.0455 H   0  0  0  0  0  0  0  0  0  0  0  0  # atno 496  bound_to 491 

> <Gold.Score>
     Score     S(PLP)   S(hbond)     S(cho)   S(metal)  DE(clash)   DE(tors)     intcor
     34.49     -31.55       1.00       0.00       0.00       0.00       0.03       0.00

> <Gold.PLP.Fitness>
34.4885

> <Gold.PLP.PLP>
-31.5535

> <Gold.PLP.part.hbond>
-1.0000

> <Gold.PLP.part.metal>
0.0000

> <Gold.PLP.part.buried>
-3.5373

> <Gold.PLP.part.nonpolar>
-26.9701

> <Gold.PLP.part.repulsive>
0.0610

> <Gold.PLP.ligand.clash>
0.0000

> <Gold.PLP.ligand.torsion>
0.0325

> <Gold.PLP.Chemscore.Hbond>
1.0000

> <Gold.PLP.Chemscore.CHOScore>
0.0000

> <Gold.PLP.Chemscore.Metal>
0.0000

> <Gold.Chemscore.Hbonds>
donor molecule, donor type, donor heavy atom, donor atom, acceptor molecule, acceptor atom, score
      L1  H    10    20       P1   470  1.00

> <Gold.PLP.Chemscore.Internal.Correction>
0.0000

