#       Name:                EN300-207119_i001
#       Creating user name   aseyller
#       Creation time:       Fri Apr 21 16:30:30 2023


#       File generated by GOLD software.
#

@<TRIPOS>MOLECULE
EN300-207119_i001|aminophenols|mol2|38|dock7
    20    20     1
SMALL
USER_CHARGES


@<TRIPOS>ATOM
      1 C1          33.4646  36.6807  34.9014 C.3            1 <1>                0.0000
      2 C2          32.2352  37.4605  35.2904 C.2            1 <1>                0.0000
      3 O3          31.8258  38.3468  34.5702 O.2            1 <1>                0.0000
      4 C4          31.5331  37.1480  36.5406 C.ar           1 <1>                0.0000
      5 C5          30.5308  38.0032  37.0156 C.ar           1 <1>                0.0000
      6 C6          29.8738  37.7086  38.1880 C.ar           1 <1>                0.0000
      7 C7          30.2025  36.5618  38.9043 C.ar           1 <1>                0.0000
      8 N8          29.5347  36.2684  40.0889 N.pl3          1 <1>                0.0000
      9 C9          31.2012  35.7042  38.4364 C.ar           1 <1>                0.0000
     10 O10         31.5196  34.5839  39.1391 O.3            1 <1>                0.0000
     11 C11         31.8600  35.9902  37.2591 C.ar           1 <1>                0.0000
     12 H12         33.8447  37.0525  33.9499 H              1 <1>                0.0000
     13 H13         34.2288  36.8002  35.6694 H              1 <1>                0.0000
     14 H14         33.2097  35.6256  34.8035 H              1 <1>                0.0000
     15 H15         30.2739  38.8941  36.4618 H              1 <1>                0.0000
     16 H16         29.1013  38.3691  38.5534 H              1 <1>                0.0000
     17 H17         32.6320  35.3277  36.8963 H              1 <1>                0.0000
     18 H18         28.8408  36.8628  40.4146 H              1 <1>                0.0000
     19 H19         29.7630  35.4693  40.5893 H              1 <1>                0.0000
     20 H20         31.4941  34.7010  40.0986 H              1 <1>                0.0000
@<TRIPOS>BOND
    1    1    2 1     
    2    1   12 1     
    3    1   13 1     
    4    1   14 1     
    5    2    3 2     
    6    2    4 1     
    7    4    5 ar    
    8    4   11 ar    
    9    5    6 ar    
   10    5   15 1     
   11    6    7 ar    
   12    6   16 1     
   13    7    8 1     
   14    7    9 ar    
   15    8   18 1     
   16    8   19 1     
   17    9   10 1     
   18    9   11 ar    
   19   10   20 1     
   20   11   17 1     
@<TRIPOS>SUBSTRUCTURE
      1 ****           1
@<TRIPOS>SET
DONOR_HYDROGENS      STATIC     ATOMS    <user>   **** ""
3 18 19 20
ATOM$RED        STATIC     ATOMS    COLORGROUP SYSTEM
3 18 19 20
@<TRIPOS>COMMENT
> <Gold.Version>
2022.2.0

> <Gold.Id.Protein>
1qkm|1qkm_protein|mol2

> <Gold.Protein.RotatedTorsions>
[  496  491  490  487 ] final -131.09 input  -89.99 | X-H torsion

> <Gold.Protein.ActiveResidues>
 MET295  LEU298  THR299  LEU301  ALA302  GLU305  TRP335  MET336  LEU339  MET340 
 GLY342  LEU343  ARG346  PHE356  ILE373  ILE376  PHE377  LEU380  LYS471  GLY472 
 MET473  HIS475  LEU476  LEU477  ASN478  MET479  VAL484  VAL487 

> <Gold.Protein.RotatedAtoms>
   37.1128   34.2053   40.7459 H   0  0  0  0  0  0  0  0  0  0  0  0  # atno 496  bound_to 491 

> <Gold.Score>
     Score     S(PLP)   S(hbond)     S(cho)   S(metal)  DE(clash)   DE(tors)     intcor
     36.55     -33.65       1.00       0.00       0.00       0.00       0.05       0.00

> <Gold.PLP.Fitness>
36.5464

> <Gold.PLP.PLP>
-33.6485

> <Gold.PLP.part.hbond>
-1.3038

> <Gold.PLP.part.metal>
0.0000

> <Gold.PLP.part.buried>
-4.2445

> <Gold.PLP.part.nonpolar>
-28.5111

> <Gold.PLP.part.repulsive>
0.1139

> <Gold.PLP.ligand.clash>
0.0000

> <Gold.PLP.ligand.torsion>
0.0511

> <Gold.PLP.Chemscore.Hbond>
1.0000

> <Gold.PLP.Chemscore.CHOScore>
0.0000

> <Gold.PLP.Chemscore.Metal>
0.0000

> <Gold.Chemscore.Hbonds>
donor molecule, donor type, donor heavy atom, donor atom, acceptor molecule, acceptor atom, score
      L1  H    10    20       P1   470  1.00

> <Gold.PLP.Chemscore.Internal.Correction>
0.0000

