#       Name:                EN300-207119_i001
#       Creating user name   aseyller
#       Creation time:       Fri Apr 21 16:30:28 2023


#       File generated by GOLD software.
#

@<TRIPOS>MOLECULE
EN300-207119_i001|aminophenols|mol2|38|dock3
    20    20     1
SMALL
USER_CHARGES


@<TRIPOS>ATOM
      1 C1          31.5046  35.8293  38.4978 C.3            1 <1>                0.0000
      2 C2          30.2245  36.5352  38.1319 C.2            1 <1>                0.0000
      3 O3          30.1678  37.2034  37.1209 O.2            1 <1>                0.0000
      4 C4          29.0465  36.4145  38.9986 C.ar           1 <1>                0.0000
      5 C5          27.7796  36.7632  38.5138 C.ar           1 <1>                0.0000
      6 C6          26.6763  36.6495  39.3280 C.ar           1 <1>                0.0000
      7 C7          26.8155  36.1882  40.6334 C.ar           1 <1>                0.0000
      8 N8          25.6965  36.0746  41.4522 N.pl3          1 <1>                0.0000
      9 C9          28.0761  35.8384  41.1235 C.ar           1 <1>                0.0000
     10 O10         28.2083  35.3874  42.4000 O.3            1 <1>                0.0000
     11 C11         29.1856  35.9445  40.3114 C.ar           1 <1>                0.0000
     12 H12         32.2619  36.0347  37.7411 H              1 <1>                0.0000
     13 H13         31.8528  36.1872  39.4667 H              1 <1>                0.0000
     14 H14         31.3253  34.7555  38.5501 H              1 <1>                0.0000
     15 H15         27.6687  37.1219  37.5012 H              1 <1>                0.0000
     16 H16         25.7000  36.9191  38.9531 H              1 <1>                0.0000
     17 H17         30.1606  35.6740  40.6891 H              1 <1>                0.0000
     18 H18         24.8206  36.3167  41.1129 H              1 <1>                0.0000
     19 H19         25.7922  35.7533  42.3625 H              1 <1>                0.0000
     20 H20         27.3693  35.1729  42.8301 H              1 <1>                0.0000
@<TRIPOS>BOND
    1    1    2 1     
    2    1   12 1     
    3    1   13 1     
    4    1   14 1     
    5    2    3 2     
    6    2    4 1     
    7    4    5 ar    
    8    4   11 ar    
    9    5    6 ar    
   10    5   15 1     
   11    6    7 ar    
   12    6   16 1     
   13    7    8 1     
   14    7    9 ar    
   15    8   18 1     
   16    8   19 1     
   17    9   10 1     
   18    9   11 ar    
   19   10   20 1     
   20   11   17 1     
@<TRIPOS>SUBSTRUCTURE
      1 ****           1
@<TRIPOS>SET
DONOR_HYDROGENS      STATIC     ATOMS    <user>   **** ""
3 18 19 20
ATOM$RED        STATIC     ATOMS    COLORGROUP SYSTEM
3 18 19 20
@<TRIPOS>COMMENT
> <Gold.Version>
2022.2.0

> <Gold.Id.Protein>
1qkm|1qkm_protein|mol2

> <Gold.Protein.RotatedTorsions>
[  496  491  490  487 ] final -153.55 input  -89.99 | X-H torsion

> <Gold.Protein.ActiveResidues>
 MET295  LEU298  THR299  LEU301  ALA302  GLU305  TRP335  MET336  LEU339  MET340 
 GLY342  LEU343  ARG346  PHE356  ILE373  ILE376  PHE377  LEU380  LYS471  GLY472 
 MET473  HIS475  LEU476  LEU477  ASN478  MET479  VAL484  VAL487 

> <Gold.Protein.RotatedAtoms>
   37.2484   33.8644   40.7286 H   0  0  0  0  0  0  0  0  0  0  0  0  # atno 496  bound_to 491 

> <Gold.Score>
     Score     S(PLP)   S(hbond)     S(cho)   S(metal)  DE(clash)   DE(tors)     intcor
     42.73     -36.98       2.00       0.00       0.00       0.00       0.12       0.00

> <Gold.PLP.Fitness>
42.7345

> <Gold.PLP.PLP>
-36.9755

> <Gold.PLP.part.hbond>
-2.5758

> <Gold.PLP.part.metal>
0.0000

> <Gold.PLP.part.buried>
-2.6519

> <Gold.PLP.part.nonpolar>
-31.4955

> <Gold.PLP.part.repulsive>
0.0801

> <Gold.PLP.ligand.clash>
0.0000

> <Gold.PLP.ligand.torsion>
0.1205

> <Gold.PLP.Chemscore.Hbond>
2.0000

> <Gold.PLP.Chemscore.CHOScore>
0.0000

> <Gold.PLP.Chemscore.Metal>
0.0000

> <Gold.Chemscore.Hbonds>
donor molecule, donor type, donor heavy atom, donor atom, acceptor molecule, acceptor atom, score
      L1  H     8    19       P1   582  1.00
      L1  H    10    20       P1   582  1.00

> <Gold.PLP.Chemscore.Internal.Correction>
0.0000

