#       Name:                EN300-207119_i001
#       Creating user name   aseyller
#       Creation time:       Fri Apr 21 16:30:30 2023


#       File generated by GOLD software.
#

@<TRIPOS>MOLECULE
EN300-207119_i001|aminophenols|mol2|38|dock8
    20    20     1
SMALL
USER_CHARGES


@<TRIPOS>ATOM
      1 C1          29.7167  37.9725  37.0186 C.3            1 <1>                0.0000
      2 C2          29.9008  37.0084  38.1620 C.2            1 <1>                0.0000
      3 O3          30.9560  36.4261  38.3006 O.2            1 <1>                0.0000
      4 C4          28.8036  36.7736  39.1077 C.ar           1 <1>                0.0000
      5 C5          29.0602  36.1685  40.3446 C.ar           1 <1>                0.0000
      6 C6          28.0301  35.9492  41.2299 C.ar           1 <1>                0.0000
      7 C7          26.7322  36.3272  40.8998 C.ar           1 <1>                0.0000
      8 N8          25.6945  36.1035  41.7989 N.pl3          1 <1>                0.0000
      9 C9          26.4690  36.9313  39.6679 C.ar           1 <1>                0.0000
     10 O10         25.1991  37.2999  39.3489 O.3            1 <1>                0.0000
     11 C11         27.4974  37.1595  38.7779 C.ar           1 <1>                0.0000
     12 H12         30.6320  38.0152  36.4283 H              1 <1>                0.0000
     13 H13         28.8934  37.6360  36.3884 H              1 <1>                0.0000
     14 H14         29.4915  38.9638  37.4118 H              1 <1>                0.0000
     15 H15         30.0664  35.8738  40.6032 H              1 <1>                0.0000
     16 H16         28.2292  35.4821  42.1831 H              1 <1>                0.0000
     17 H17         27.2952  37.6267  37.8254 H              1 <1>                0.0000
     18 H18         25.8760  35.6845  42.6548 H              1 <1>                0.0000
     19 H19         24.7893  36.3664  41.5700 H              1 <1>                0.0000
     20 H20         24.5154  36.7861  39.8000 H              1 <1>                0.0000
@<TRIPOS>BOND
    1    1    2 1     
    2    1   12 1     
    3    1   13 1     
    4    1   14 1     
    5    2    3 2     
    6    2    4 1     
    7    4    5 ar    
    8    4   11 ar    
    9    5    6 ar    
   10    5   15 1     
   11    6    7 ar    
   12    6   16 1     
   13    7    8 1     
   14    7    9 ar    
   15    8   18 1     
   16    8   19 1     
   17    9   10 1     
   18    9   11 ar    
   19   10   20 1     
   20   11   17 1     
@<TRIPOS>SUBSTRUCTURE
      1 ****           1
@<TRIPOS>SET
DONOR_HYDROGENS      STATIC     ATOMS    <user>   **** ""
3 18 19 20
ATOM$RED        STATIC     ATOMS    COLORGROUP SYSTEM
3 18 19 20
@<TRIPOS>COMMENT
> <Gold.Version>
2022.2.0

> <Gold.Id.Protein>
1qkm|1qkm_protein|mol2

> <Gold.Protein.RotatedTorsions>
[  496  491  490  487 ] final   64.91 input  -89.99 | X-H torsion

> <Gold.Protein.ActiveResidues>
 MET295  LEU298  THR299  LEU301  ALA302  GLU305  TRP335  MET336  LEU339  MET340 
 GLY342  LEU343  ARG346  PHE356  ILE373  ILE376  PHE377  LEU380  LYS471  GLY472 
 MET473  HIS475  LEU476  LEU477  ASN478  MET479  VAL484  VAL487 

> <Gold.Protein.RotatedAtoms>
   36.5929   33.2584   42.2698 H   0  0  0  0  0  0  0  0  0  0  0  0  # atno 496  bound_to 491 

> <Gold.Score>
     Score     S(PLP)   S(hbond)     S(cho)   S(metal)  DE(clash)   DE(tors)     intcor
     40.98     -36.47       1.59       0.00       0.00       0.00       0.12       0.00

> <Gold.PLP.Fitness>
40.9848

> <Gold.PLP.PLP>
-36.4701

> <Gold.PLP.part.hbond>
-1.9909

> <Gold.PLP.part.metal>
0.0000

> <Gold.PLP.part.buried>
-3.8209

> <Gold.PLP.part.nonpolar>
-31.2944

> <Gold.PLP.part.repulsive>
0.1324

> <Gold.PLP.ligand.clash>
0.0000

> <Gold.PLP.ligand.torsion>
0.1205

> <Gold.PLP.Chemscore.Hbond>
1.5852

> <Gold.PLP.Chemscore.CHOScore>
0.0000

> <Gold.PLP.Chemscore.Metal>
0.0000

> <Gold.Chemscore.Hbonds>
donor molecule, donor type, donor heavy atom, donor atom, acceptor molecule, acceptor atom, score
      L1  H     8    18       P1   582  1.00
      L1  H    10    20       P1  1131  0.59

> <Gold.PLP.Chemscore.Internal.Correction>
0.0000

