#       Name:                plp ligand
#       Creating user name   aseyller
#       Creation time:       Fri Apr 21 16:30:27 2023


#       File generated by GOLD software.
#

@<TRIPOS>MOLECULE
plp ligand
    20    20     1
SMALL
USER_CHARGES


@<TRIPOS>ATOM
      1 C1           3.2606   0.6230   0.0285 NONPOLAR       1 <1>                0.0000
      2 C2           2.2860  -0.5263   0.0425 NONPOLAR       1 <1>                0.0000
      3 O3           2.6950  -1.6684   0.0519 ACCEPTOR       1 <1>                0.0000
      4 C4           0.8422  -0.2640   0.0446 NONPOLAR       1 <1>                0.0000
      5 C5           0.3681   1.0539   0.0336 NONPOLAR       1 <1>                0.0000
      6 C6          -0.9860   1.2978   0.0357 NONPOLAR       1 <1>                0.0000
      7 C7          -1.8872   0.2377   0.0487 NONPOLAR       1 <1>                0.0000
      8 N8          -3.2553   0.4900   0.0502 DONOR          1 <1>                0.0000
      9 C9          -1.4214  -1.0794   0.0596 NONPOLAR       1 <1>                0.0000
     10 O10         -2.3053  -2.1132   0.0718 DONACC         1 <1>                0.0000
     11 C11         -0.0656  -1.3315   0.0518 NONPOLAR       1 <1>                0.0000
     12 H12          4.2794   0.2355   0.0289                1 <1>                0.0000
     13 H13          3.1009   1.2240  -0.8667                1 <1>                0.0000
     14 H14          3.1066   1.2408   0.9131                1 <1>                0.0000
     15 H15          1.0653   1.8786   0.0239                1 <1>                0.0000
     16 H16         -1.3503   2.3145   0.0276                1 <1>                0.0000
     17 H17          0.2957  -2.3493   0.0599                1 <1>                0.0000
     18 H18         -3.5800   1.4040   0.0422                1 <1>                0.0000
     19 H19         -3.8846  -0.2482   0.0595                1 <1>                0.0000
     20 H20         -2.5634  -2.4203  -0.8080                1 <1>                0.0000
@<TRIPOS>BOND
    1    1    2 1     
    2    1   12 1     
    3    1   13 1     
    4    1   14 1     
    5    2    3 2     
    6    2    4 1     
    7    4    5 ar    
    8    4   11 ar    
    9    5    6 ar    
   10    5   15 1     
   11    6    7 ar    
   12    6   16 1     
   13    7    8 1     
   14    7    9 ar    
   15    8   18 1     
   16    8   19 1     
   17    9   10 1     
   18    9   11 ar    
   19   10   20 1     
   20   11   17 1     
@<TRIPOS>SUBSTRUCTURE
      1 ****           1
@<TRIPOS>SET
DONOR_HYDROGENS      STATIC     ATOMS    <user>   **** ""
3 18 19 20
ATOM$RED        STATIC     ATOMS    COLORGROUP SYSTEM
3 18 19 20
