#       Name:                EN300-75805_i001
#       Creating user name   aseyller
#       Creation time:       Fri Apr 21 18:34:55 2023


#       File generated by GOLD software.
#

@<TRIPOS>MOLECULE
EN300-75805_i001|benzaldehydes|mol2|575|dock14
    18    18     1
SMALL
USER_CHARGES


@<TRIPOS>ATOM
      1 F1          28.0024  36.1042  38.8176 F              1 <1>                0.0000
      2 C2          28.8410  36.9224  39.5822 C.3            1 <1>                0.0000
      3 F3          28.7955  36.5159  40.9202 F              1 <1>                0.0000
      4 O4          30.1810  36.8165  39.0976 O.3            1 <1>                0.0000
      5 C5          30.4259  37.2989  37.8541 C.ar           1 <1>                0.0000
      6 C6          29.6037  38.2742  37.3109 C.ar           1 <1>                0.0000
      7 C7          29.8532  38.7654  36.0446 C.ar           1 <1>                0.0000
      8 C8          30.9245  38.2907  35.3052 C.ar           1 <1>                0.0000
      9 C9          31.7544  37.3208  35.8260 C.ar           1 <1>                0.0000
     10 Cl10        33.0949  36.7306  34.8940 Cl             1 <1>                0.0000
     11 C11         31.5173  36.8172  37.1124 C.ar           1 <1>                0.0000
     12 C12         32.3948  35.7852  37.6750 C.2            1 <1>                0.0000
     13 O13         32.0895  35.2264  38.7075 O.2            1 <1>                0.0000
     14 H14         28.5075  37.9573  39.5055 H              1 <1>                0.0000
     15 H15         28.7658  38.6504  37.8792 H              1 <1>                0.0000
     16 H16         29.2086  39.5248  35.6274 H              1 <1>                0.0000
     17 H17         31.1101  38.6821  34.3159 H              1 <1>                0.0000
     18 H18         33.3127  35.5228  37.1700 H              1 <1>                0.0000
@<TRIPOS>BOND
    1    1    2 1     
    2    2    3 1     
    3    2    4 1     
    4    2   14 1     
    5    4    5 1     
    6    5    6 ar    
    7    5   11 ar    
    8    6    7 ar    
    9    6   15 1     
   10    7    8 ar    
   11    7   16 1     
   12    8    9 ar    
   13    8   17 1     
   14    9   10 1     
   15    9   11 ar    
   16   11   12 1     
   17   12   13 2     
   18   12   18 1     
@<TRIPOS>SUBSTRUCTURE
      1 ****           1
@<TRIPOS>COMMENT
> <Gold.Version>
2022.2.0

> <Gold.Id.Protein>
1qkm|1qkm_protein|mol2

> <Gold.Protein.RotatedTorsions>
[  496  491  490  487 ] final -120.81 input  -89.99 | X-H torsion

> <Gold.Protein.ActiveResidues>
 MET295  LEU298  THR299  LEU301  ALA302  GLU305  TRP335  MET336  LEU339  MET340 
 GLY342  LEU343  ARG346  PHE356  ILE373  ILE376  PHE377  LEU380  LYS471  GLY472 
 MET473  HIS475  LEU476  LEU477  ASN478  MET479  VAL484  VAL487 

> <Gold.Protein.RotatedAtoms>
   37.0327   34.3457   40.7955 H   0  0  0  0  0  0  0  0  0  0  0  0  # atno 496  bound_to 491 

> <Gold.Score>
     Score     S(PLP)   S(hbond)     S(cho)   S(metal)  DE(clash)   DE(tors)     intcor
     41.37     -42.13       0.00       0.00       0.00       0.00       0.38       0.00

> <Gold.PLP.Fitness>
41.3723

> <Gold.PLP.PLP>
-42.1319

> <Gold.PLP.part.hbond>
0.0000

> <Gold.PLP.part.metal>
0.0000

> <Gold.PLP.part.buried>
-2.8494

> <Gold.PLP.part.nonpolar>
-39.4288

> <Gold.PLP.part.repulsive>
0.1507

> <Gold.PLP.ligand.clash>
0.0000

> <Gold.PLP.ligand.torsion>
0.3803

> <Gold.PLP.Chemscore.Hbond>
0.0000

> <Gold.PLP.Chemscore.CHOScore>
0.0000

> <Gold.PLP.Chemscore.Metal>
0.0000

> <Gold.PLP.Chemscore.Internal.Correction>
0.0010

