#       Name:                EN300-75805_i001
#       Creating user name   aseyller
#       Creation time:       Fri Apr 21 18:34:53 2023


#       File generated by GOLD software.
#

@<TRIPOS>MOLECULE
EN300-75805_i001|benzaldehydes|mol2|575|dock11
    18    18     1
SMALL
USER_CHARGES


@<TRIPOS>ATOM
      1 F1          28.2684  35.5403  41.3224 F              1 <1>                0.0000
      2 C2          28.6403  35.6957  39.9827 C.3            1 <1>                0.0000
      3 F3          27.4927  35.7928  39.1884 F              1 <1>                0.0000
      4 O4          29.4205  36.8843  39.8397 O.3            1 <1>                0.0000
      5 C5          29.9130  37.1526  38.6050 C.ar           1 <1>                0.0000
      6 C6          29.4605  38.2570  37.8994 C.ar           1 <1>                0.0000
      7 C7          29.9621  38.5300  36.6421 C.ar           1 <1>                0.0000
      8 C8          30.9200  37.7062  36.0735 C.ar           1 <1>                0.0000
      9 C9          31.3835  36.6025  36.7575 C.ar           1 <1>                0.0000
     10 Cl10        32.5839  35.5746  36.0390 Cl             1 <1>                0.0000
     11 C11         30.8883  36.3162  38.0370 C.ar           1 <1>                0.0000
     12 C12         31.3754  35.1443  38.7725 C.2            1 <1>                0.0000
     13 O13         32.0705  34.3227  38.2126 O.2            1 <1>                0.0000
     14 H14         29.2289  34.8344  39.6667 H              1 <1>                0.0000
     15 H15         28.7137  38.9050  38.3339 H              1 <1>                0.0000
     16 H16         29.6050  39.3918  36.0979 H              1 <1>                0.0000
     17 H17         31.3052  37.9294  35.0896 H              1 <1>                0.0000
     18 H18         31.1153  35.0129  39.8124 H              1 <1>                0.0000
@<TRIPOS>BOND
    1    1    2 1     
    2    2    3 1     
    3    2    4 1     
    4    2   14 1     
    5    4    5 1     
    6    5    6 ar    
    7    5   11 ar    
    8    6    7 ar    
    9    6   15 1     
   10    7    8 ar    
   11    7   16 1     
   12    8    9 ar    
   13    8   17 1     
   14    9   10 1     
   15    9   11 ar    
   16   11   12 1     
   17   12   13 2     
   18   12   18 1     
@<TRIPOS>SUBSTRUCTURE
      1 ****           1
@<TRIPOS>COMMENT
> <Gold.Version>
2022.2.0

> <Gold.Id.Protein>
1qkm|1qkm_protein|mol2

> <Gold.Protein.RotatedTorsions>
[  496  491  490  487 ] final -159.05 input  -89.99 | X-H torsion

> <Gold.Protein.ActiveResidues>
 MET295  LEU298  THR299  LEU301  ALA302  GLU305  TRP335  MET336  LEU339  MET340 
 GLY342  LEU343  ARG346  PHE356  ILE373  ILE376  PHE377  LEU380  LYS471  GLY472 
 MET473  HIS475  LEU476  LEU477  ASN478  MET479  VAL484  VAL487 

> <Gold.Protein.RotatedAtoms>
   37.2716   33.7782   40.7437 H   0  0  0  0  0  0  0  0  0  0  0  0  # atno 496  bound_to 491 

> <Gold.Score>
     Score     S(PLP)   S(hbond)     S(cho)   S(metal)  DE(clash)   DE(tors)     intcor
     41.25     -41.39       0.00       0.00       0.00       0.00       0.07       0.00

> <Gold.PLP.Fitness>
41.2480

> <Gold.PLP.PLP>
-41.3886

> <Gold.PLP.part.hbond>
0.0000

> <Gold.PLP.part.metal>
0.0000

> <Gold.PLP.part.buried>
-3.3391

> <Gold.PLP.part.nonpolar>
-38.2524

> <Gold.PLP.part.repulsive>
0.1231

> <Gold.PLP.ligand.clash>
0.0000

> <Gold.PLP.ligand.torsion>
0.0708

> <Gold.PLP.Chemscore.Hbond>
0.0000

> <Gold.PLP.Chemscore.CHOScore>
0.0000

> <Gold.PLP.Chemscore.Metal>
0.0000

> <Gold.PLP.Chemscore.Internal.Correction>
0.0010

