#       Name:                EN300-75805_i001
#       Creating user name   aseyller
#       Creation time:       Fri Apr 21 18:34:58 2023


#       File generated by GOLD software.
#

@<TRIPOS>MOLECULE
EN300-75805_i001|benzaldehydes|mol2|575|dock18
    18    18     1
SMALL
USER_CHARGES


@<TRIPOS>ATOM
      1 F1          27.3132  35.6055  41.1826 F              1 <1>                0.0000
      2 C2          28.2698  36.4027  40.5450 C.3            1 <1>                0.0000
      3 F3          29.0950  36.9985  41.5049 F              1 <1>                0.0000
      4 O4          29.0608  35.5925  39.6734 O.3            1 <1>                0.0000
      5 C5          29.8843  36.2384  38.8112 C.ar           1 <1>                0.0000
      6 C6          29.5776  37.5210  38.3834 C.ar           1 <1>                0.0000
      7 C7          30.4163  38.1786  37.5053 C.ar           1 <1>                0.0000
      8 C8          31.5700  37.5660  37.0434 C.ar           1 <1>                0.0000
      9 C9          31.8939  36.2909  37.4556 C.ar           1 <1>                0.0000
     10 Cl10        33.3411  35.5294  36.8729 Cl             1 <1>                0.0000
     11 C11         31.0555  35.6135  38.3515 C.ar           1 <1>                0.0000
     12 C12         31.3917  34.2566  38.7958 C.2            1 <1>                0.0000
     13 O13         32.1042  33.5531  38.1108 O.2            1 <1>                0.0000
     14 H14         27.7687  37.1780  39.9653 H              1 <1>                0.0000
     15 H15         28.6803  38.0069  38.7374 H              1 <1>                0.0000
     16 H16         30.1711  39.1774  37.1758 H              1 <1>                0.0000
     17 H17         32.2187  38.0898  36.3569 H              1 <1>                0.0000
     18 H18         31.0050  33.8838  39.7328 H              1 <1>                0.0000
@<TRIPOS>BOND
    1    1    2 1     
    2    2    3 1     
    3    2    4 1     
    4    2   14 1     
    5    4    5 1     
    6    5    6 ar    
    7    5   11 ar    
    8    6    7 ar    
    9    6   15 1     
   10    7    8 ar    
   11    7   16 1     
   12    8    9 ar    
   13    8   17 1     
   14    9   10 1     
   15    9   11 ar    
   16   11   12 1     
   17   12   13 2     
   18   12   18 1     
@<TRIPOS>SUBSTRUCTURE
      1 ****           1
@<TRIPOS>COMMENT
> <Gold.Version>
2022.2.0

> <Gold.Id.Protein>
1qkm|1qkm_protein|mol2

> <Gold.Protein.RotatedTorsions>
[  496  491  490  487 ] final  166.36 input  -89.99 | X-H torsion

> <Gold.Protein.ActiveResidues>
 MET295  LEU298  THR299  LEU301  ALA302  GLU305  TRP335  MET336  LEU339  MET340 
 GLY342  LEU343  ARG346  PHE356  ILE373  ILE376  PHE377  LEU380  LYS471  GLY472 
 MET473  HIS475  LEU476  LEU477  ASN478  MET479  VAL484  VAL487 

> <Gold.Protein.RotatedAtoms>
   37.3103   33.2799   40.9982 H   0  0  0  0  0  0  0  0  0  0  0  0  # atno 496  bound_to 491 

> <Gold.Score>
     Score     S(PLP)   S(hbond)     S(cho)   S(metal)  DE(clash)   DE(tors)     intcor
     42.62     -43.72       0.00       0.00       0.00       0.00       0.55       0.00

> <Gold.PLP.Fitness>
42.6213

> <Gold.PLP.PLP>
-43.7232

> <Gold.PLP.part.hbond>
0.0000

> <Gold.PLP.part.metal>
0.0000

> <Gold.PLP.part.buried>
-2.3521

> <Gold.PLP.part.nonpolar>
-41.6789

> <Gold.PLP.part.repulsive>
0.1071

> <Gold.PLP.ligand.clash>
0.0000

> <Gold.PLP.ligand.torsion>
0.5514

> <Gold.PLP.Chemscore.Hbond>
0.0000

> <Gold.PLP.Chemscore.CHOScore>
0.0000

> <Gold.PLP.Chemscore.Metal>
0.0000

> <Gold.PLP.Chemscore.Internal.Correction>
0.0010

