#       Name:                EN300-75805_i001
#       Creating user name   aseyller
#       Creation time:       Fri Apr 21 18:34:47 2023


#       File generated by GOLD software.
#

@<TRIPOS>MOLECULE
EN300-75805_i001|benzaldehydes|mol2|575|dock1
    18    18     1
SMALL
USER_CHARGES


@<TRIPOS>ATOM
      1 F1          28.2332  36.0519  41.1155 F              1 <1>                0.0000
      2 C2          28.6788  35.7558  39.8228 C.3            1 <1>                0.0000
      3 F3          27.6913  36.1092  38.8968 F              1 <1>                0.0000
      4 O4          29.8728  36.4919  39.5501 O.3            1 <1>                0.0000
      5 C5          30.7293  35.9615  38.6425 C.ar           1 <1>                0.0000
      6 C6          31.2295  34.6810  38.8220 C.ar           1 <1>                0.0000
      7 C7          32.1017  34.1410  37.8975 C.ar           1 <1>                0.0000
      8 C8          32.4854  34.8704  36.7838 C.ar           1 <1>                0.0000
      9 C9          32.0003  36.1456  36.5860 C.ar           1 <1>                0.0000
     10 Cl10        32.4852  37.0539  35.1882 Cl             1 <1>                0.0000
     11 C11         31.1095  36.7045  37.5125 C.ar           1 <1>                0.0000
     12 C12         30.5880  38.0606  37.3105 C.2            1 <1>                0.0000
     13 O13         30.9641  38.7205  36.3647 O.2            1 <1>                0.0000
     14 H14         28.8843  34.6882  39.7450 H              1 <1>                0.0000
     15 H15         30.9368  34.1045  39.6872 H              1 <1>                0.0000
     16 H16         32.4879  33.1431  38.0438 H              1 <1>                0.0000
     17 H17         33.1681  34.4380  36.0673 H              1 <1>                0.0000
     18 H18         29.8691  38.4716  38.0039 H              1 <1>                0.0000
@<TRIPOS>BOND
    1    1    2 1     
    2    2    3 1     
    3    2    4 1     
    4    2   14 1     
    5    4    5 1     
    6    5    6 ar    
    7    5   11 ar    
    8    6    7 ar    
    9    6   15 1     
   10    7    8 ar    
   11    7   16 1     
   12    8    9 ar    
   13    8   17 1     
   14    9   10 1     
   15    9   11 ar    
   16   11   12 1     
   17   12   13 2     
   18   12   18 1     
@<TRIPOS>SUBSTRUCTURE
      1 ****           1
@<TRIPOS>COMMENT
> <Gold.Version>
2022.2.0

> <Gold.Id.Protein>
1qkm|1qkm_protein|mol2

> <Gold.Protein.RotatedTorsions>
[  496  491  490  487 ] final   74.47 input  -89.99 | X-H torsion

> <Gold.Protein.ActiveResidues>
 MET295  LEU298  THR299  LEU301  ALA302  GLU305  TRP335  MET336  LEU339  MET340 
 GLY342  LEU343  ARG346  PHE356  ILE373  ILE376  PHE377  LEU380  LYS471  GLY472 
 MET473  HIS475  LEU476  LEU477  ASN478  MET479  VAL484  VAL487 

> <Gold.Protein.RotatedAtoms>
   36.6775   33.1524   42.1901 H   0  0  0  0  0  0  0  0  0  0  0  0  # atno 496  bound_to 491 

> <Gold.Score>
     Score     S(PLP)   S(hbond)     S(cho)   S(metal)  DE(clash)   DE(tors)     intcor
     43.53     -44.16       0.00       0.00       0.00       0.00       0.32       0.02

> <Gold.PLP.Fitness>
43.5270

> <Gold.PLP.PLP>
-44.1588

> <Gold.PLP.part.hbond>
0.0000

> <Gold.PLP.part.metal>
0.0000

> <Gold.PLP.part.buried>
-3.3024

> <Gold.PLP.part.nonpolar>
-41.4388

> <Gold.PLP.part.repulsive>
0.0811

> <Gold.PLP.ligand.clash>
0.0000

> <Gold.PLP.ligand.torsion>
0.3237

> <Gold.PLP.Chemscore.Hbond>
0.0000

> <Gold.PLP.Chemscore.CHOScore>
0.0000

> <Gold.PLP.Chemscore.Metal>
0.0000

> <Gold.PLP.Chemscore.Internal.Correction>
0.0155

