#       Name:                EN300-75805_i001
#       Creating user name   aseyller
#       Creation time:       Fri Apr 21 18:34:48 2023


#       File generated by GOLD software.
#

@<TRIPOS>MOLECULE
EN300-75805_i001|benzaldehydes|mol2|575|dock2
    18    18     1
SMALL
USER_CHARGES


@<TRIPOS>ATOM
      1 F1          32.5212  35.9238  37.8933 F              1 <1>                0.0000
      2 C2          31.2038  35.5613  38.1938 C.3            1 <1>                0.0000
      3 F3          31.1930  34.2967  38.7921 F              1 <1>                0.0000
      4 O4          30.6395  36.5183  39.0925 O.3            1 <1>                0.0000
      5 C5          29.3386  36.8498  38.9015 C.ar           1 <1>                0.0000
      6 C6          28.9257  37.3805  37.6890 C.ar           1 <1>                0.0000
      7 C7          27.6008  37.7180  37.4947 C.ar           1 <1>                0.0000
      8 C8          26.6723  37.5307  38.5059 C.ar           1 <1>                0.0000
      9 C9          27.0614  37.0049  39.7195 C.ar           1 <1>                0.0000
     10 Cl10        25.8927  36.7728  40.9820 Cl             1 <1>                0.0000
     11 C11         28.4015  36.6517  39.9291 C.ar           1 <1>                0.0000
     12 C12         28.8250  36.0915  41.2169 C.2            1 <1>                0.0000
     13 O13         28.0038  35.8723  42.0825 O.2            1 <1>                0.0000
     14 H14         30.6162  35.5340  37.2761 H              1 <1>                0.0000
     15 H15         29.6419  37.5307  36.8947 H              1 <1>                0.0000
     16 H16         27.2861  38.1313  36.5479 H              1 <1>                0.0000
     17 H17         25.6388  37.7983  38.3428 H              1 <1>                0.0000
     18 H18         29.8679  35.8741  41.3945 H              1 <1>                0.0000
@<TRIPOS>BOND
    1    1    2 1     
    2    2    3 1     
    3    2    4 1     
    4    2   14 1     
    5    4    5 1     
    6    5    6 ar    
    7    5   11 ar    
    8    6    7 ar    
    9    6   15 1     
   10    7    8 ar    
   11    7   16 1     
   12    8    9 ar    
   13    8   17 1     
   14    9   10 1     
   15    9   11 ar    
   16   11   12 1     
   17   12   13 2     
   18   12   18 1     
@<TRIPOS>SUBSTRUCTURE
      1 ****           1
@<TRIPOS>COMMENT
> <Gold.Version>
2022.2.0

> <Gold.Id.Protein>
1qkm|1qkm_protein|mol2

> <Gold.Protein.RotatedTorsions>
[  496  491  490  487 ] final  -32.05 input  -89.99 | X-H torsion

> <Gold.Protein.ActiveResidues>
 MET295  LEU298  THR299  LEU301  ALA302  GLU305  TRP335  MET336  LEU339  MET340 
 GLY342  LEU343  ARG346  PHE356  ILE373  ILE376  PHE377  LEU380  LYS471  GLY472 
 MET473  HIS475  LEU476  LEU477  ASN478  MET479  VAL484  VAL487 

> <Gold.Protein.RotatedAtoms>
   36.3237   34.5892   41.8810 H   0  0  0  0  0  0  0  0  0  0  0  0  # atno 496  bound_to 491 

> <Gold.Score>
     Score     S(PLP)   S(hbond)     S(cho)   S(metal)  DE(clash)   DE(tors)     intcor
     44.94     -46.00       0.00       0.00       0.00       0.00       0.54       0.01

> <Gold.PLP.Fitness>
44.9404

> <Gold.PLP.PLP>
-46.0033

> <Gold.PLP.part.hbond>
0.0000

> <Gold.PLP.part.metal>
0.0000

> <Gold.PLP.part.buried>
-1.9720

> <Gold.PLP.part.nonpolar>
-45.4408

> <Gold.PLP.part.repulsive>
1.7676

> <Gold.PLP.ligand.clash>
0.0000

> <Gold.PLP.ligand.torsion>
0.5378

> <Gold.PLP.Chemscore.Hbond>
0.0000

> <Gold.PLP.Chemscore.CHOScore>
0.0000

> <Gold.PLP.Chemscore.Metal>
0.0000

> <Gold.PLP.Chemscore.Internal.Correction>
0.0128

