#       Name:                EN300-75805_i001
#       Creating user name   aseyller
#       Creation time:       Fri Apr 21 18:34:51 2023


#       File generated by GOLD software.
#

@<TRIPOS>MOLECULE
EN300-75805_i001|benzaldehydes|mol2|575|dock7
    18    18     1
SMALL
USER_CHARGES


@<TRIPOS>ATOM
      1 F1          28.4883  35.8375  41.5008 F              1 <1>                0.0000
      2 C2          28.7141  35.7852  40.1211 C.3            1 <1>                0.0000
      3 F3          27.5084  35.9942  39.4430 F              1 <1>                0.0000
      4 O4          29.6500  36.8003  39.7528 O.3            1 <1>                0.0000
      5 C5          30.4714  36.5306  38.7081 C.ar           1 <1>                0.0000
      6 C6          31.4105  35.5151  38.8044 C.ar           1 <1>                0.0000
      7 C7          32.2469  35.2407  37.7404 C.ar           1 <1>                0.0000
      8 C8          32.1573  35.9744  36.5686 C.ar           1 <1>                0.0000
      9 C9          31.2310  36.9888  36.4516 C.ar           1 <1>                0.0000
     10 Cl10        31.1241  37.9041  34.9804 Cl             1 <1>                0.0000
     11 C11         30.3711  37.2748  37.5208 C.ar           1 <1>                0.0000
     12 C12         29.3822  38.3521  37.4058 C.2            1 <1>                0.0000
     13 O13         29.3665  39.0582  36.4195 O.2            1 <1>                0.0000
     14 H14         29.1155  34.8073  39.8554 H              1 <1>                0.0000
     15 H15         31.4884  34.9378  39.7138 H              1 <1>                0.0000
     16 H16         32.9763  34.4485  37.8223 H              1 <1>                0.0000
     17 H17         32.8165  35.7509  35.7429 H              1 <1>                0.0000
     18 H18         28.6681  38.5167  38.1991 H              1 <1>                0.0000
@<TRIPOS>BOND
    1    1    2 1     
    2    2    3 1     
    3    2    4 1     
    4    2   14 1     
    5    4    5 1     
    6    5    6 ar    
    7    5   11 ar    
    8    6    7 ar    
    9    6   15 1     
   10    7    8 ar    
   11    7   16 1     
   12    8    9 ar    
   13    8   17 1     
   14    9   10 1     
   15    9   11 ar    
   16   11   12 1     
   17   12   13 2     
   18   12   18 1     
@<TRIPOS>SUBSTRUCTURE
      1 ****           1
@<TRIPOS>COMMENT
> <Gold.Version>
2022.2.0

> <Gold.Id.Protein>
1qkm|1qkm_protein|mol2

> <Gold.Protein.RotatedTorsions>
[  496  491  490  487 ] final   83.82 input  -89.99 | X-H torsion

> <Gold.Protein.ActiveResidues>
 MET295  LEU298  THR299  LEU301  ALA302  GLU305  TRP335  MET336  LEU339  MET340 
 GLY342  LEU343  ARG346  PHE356  ILE373  ILE376  PHE377  LEU380  LYS471  GLY472 
 MET473  HIS475  LEU476  LEU477  ASN478  MET479  VAL484  VAL487 

> <Gold.Protein.RotatedAtoms>
   36.7631   33.0671   42.0951 H   0  0  0  0  0  0  0  0  0  0  0  0  # atno 496  bound_to 491 

> <Gold.Score>
     Score     S(PLP)   S(hbond)     S(cho)   S(metal)  DE(clash)   DE(tors)     intcor
     42.35     -43.24       0.00       0.00       0.00       0.00       0.45       0.00

> <Gold.PLP.Fitness>
42.3478

> <Gold.PLP.PLP>
-43.2379

> <Gold.PLP.part.hbond>
0.0000

> <Gold.PLP.part.metal>
0.0000

> <Gold.PLP.part.buried>
-3.2045

> <Gold.PLP.part.nonpolar>
-40.3209

> <Gold.PLP.part.repulsive>
0.0743

> <Gold.PLP.ligand.clash>
0.0000

> <Gold.PLP.ligand.torsion>
0.4455

> <Gold.PLP.Chemscore.Hbond>
0.0000

> <Gold.PLP.Chemscore.CHOScore>
0.0000

> <Gold.PLP.Chemscore.Metal>
0.0000

> <Gold.PLP.Chemscore.Internal.Correction>
0.0010

