#       Name:                EN300-75805_i001
#       Creating user name   aseyller
#       Creation time:       Fri Apr 21 18:34:56 2023


#       File generated by GOLD software.
#

@<TRIPOS>MOLECULE
EN300-75805_i001|benzaldehydes|mol2|575|dock15
    18    18     1
SMALL
USER_CHARGES


@<TRIPOS>ATOM
      1 F1          27.1300  35.5055  40.2537 F              1 <1>                0.0000
      2 C2          27.1493  36.3582  39.1447 C.3            1 <1>                0.0000
      3 F3          25.9472  37.0715  39.0840 F              1 <1>                0.0000
      4 O4          28.2404  37.2730  39.2660 O.3            1 <1>                0.0000
      5 C5          29.4441  36.8611  38.7969 C.ar           1 <1>                0.0000
      6 C6          30.0132  35.6895  39.2723 C.ar           1 <1>                0.0000
      7 C7          31.2391  35.2702  38.7944 C.ar           1 <1>                0.0000
      8 C8          31.9119  36.0130  37.8377 C.ar           1 <1>                0.0000
      9 C9          31.3644  37.1812  37.3517 C.ar           1 <1>                0.0000
     10 Cl10        32.2129  38.1069  36.1529 Cl             1 <1>                0.0000
     11 C11         30.1180  37.6161  37.8226 C.ar           1 <1>                0.0000
     12 C12         29.5274  38.8577  37.3115 C.2            1 <1>                0.0000
     13 O13         30.1660  39.5716  36.5671 O.2            1 <1>                0.0000
     14 H14         27.2684  35.7691  38.2354 H              1 <1>                0.0000
     15 H15         29.4968  35.1037  40.0184 H              1 <1>                0.0000
     16 H16         31.6768  34.3569  39.1693 H              1 <1>                0.0000
     17 H17         32.8701  35.6755  37.4712 H              1 <1>                0.0000
     18 H18         28.5240  39.1363  37.5978 H              1 <1>                0.0000
@<TRIPOS>BOND
    1    1    2 1     
    2    2    3 1     
    3    2    4 1     
    4    2   14 1     
    5    4    5 1     
    6    5    6 ar    
    7    5   11 ar    
    8    6    7 ar    
    9    6   15 1     
   10    7    8 ar    
   11    7   16 1     
   12    8    9 ar    
   13    8   17 1     
   14    9   10 1     
   15    9   11 ar    
   16   11   12 1     
   17   12   13 2     
   18   12   18 1     
@<TRIPOS>SUBSTRUCTURE
      1 ****           1
@<TRIPOS>COMMENT
> <Gold.Version>
2022.2.0

> <Gold.Id.Protein>
1qkm|1qkm_protein|mol2

> <Gold.Protein.RotatedTorsions>
[  496  491  490  487 ] final -140.08 input  -89.99 | X-H torsion

> <Gold.Protein.ActiveResidues>
 MET295  LEU298  THR299  LEU301  ALA302  GLU305  TRP335  MET336  LEU339  MET340 
 GLY342  LEU343  ARG346  PHE356  ILE373  ILE376  PHE377  LEU380  LYS471  GLY472 
 MET473  HIS475  LEU476  LEU477  ASN478  MET479  VAL484  VAL487 

> <Gold.Protein.RotatedAtoms>
   37.1744   34.0727   40.7237 H   0  0  0  0  0  0  0  0  0  0  0  0  # atno 496  bound_to 491 

> <Gold.Score>
     Score     S(PLP)   S(hbond)     S(cho)   S(metal)  DE(clash)   DE(tors)     intcor
     41.85     -42.51       0.00       0.00       0.00       0.00       0.33       0.00

> <Gold.PLP.Fitness>
41.8477

> <Gold.PLP.PLP>
-42.5107

> <Gold.PLP.part.hbond>
0.0000

> <Gold.PLP.part.metal>
0.0000

> <Gold.PLP.part.buried>
-1.2061

> <Gold.PLP.part.nonpolar>
-41.5136

> <Gold.PLP.part.repulsive>
0.0000

> <Gold.PLP.ligand.clash>
0.0000

> <Gold.PLP.ligand.torsion>
0.3320

> <Gold.PLP.Chemscore.Hbond>
0.0000

> <Gold.PLP.Chemscore.CHOScore>
0.0000

> <Gold.PLP.Chemscore.Metal>
0.0000

> <Gold.PLP.Chemscore.Internal.Correction>
0.0010

