#       Name:                EN300-75805_i001
#       Creating user name   aseyller
#       Creation time:       Fri Apr 21 18:34:52 2023


#       File generated by GOLD software.
#

@<TRIPOS>MOLECULE
EN300-75805_i001|benzaldehydes|mol2|575|dock9
    18    18     1
SMALL
USER_CHARGES


@<TRIPOS>ATOM
      1 F1          29.1029  36.6910  40.6717 F              1 <1>                0.0000
      2 C2          29.4358  36.3814  39.3486 C.3            1 <1>                0.0000
      3 F3          28.2681  36.2860  38.5840 F              1 <1>                0.0000
      4 O4          30.2721  37.4097  38.8147 O.3            1 <1>                0.0000
      5 C5          31.1627  37.0449  37.8593 C.ar           1 <1>                0.0000
      6 C6          32.0335  35.9899  38.0851 C.ar           1 <1>                0.0000
      7 C7          32.9403  35.6186  37.1121 C.ar           1 <1>                0.0000
      8 C8          32.9899  36.2938  35.9033 C.ar           1 <1>                0.0000
      9 C9          32.1335  37.3459  35.6581 C.ar           1 <1>                0.0000
     10 Cl10        32.2010  38.1875  34.1411 Cl             1 <1>                0.0000
     11 C11         31.2035  37.7302  36.6337 C.ar           1 <1>                0.0000
     12 C12         30.2881  38.8483  36.3820 C.2            1 <1>                0.0000
     13 O13         29.6225  39.3033  37.2884 O.2            1 <1>                0.0000
     14 H14         29.9670  35.4299  39.3207 H              1 <1>                0.0000
     15 H15         32.0030  35.4576  39.0244 H              1 <1>                0.0000
     16 H16         33.6161  34.7961  37.2947 H              1 <1>                0.0000
     17 H17         33.7032  35.9947  35.1495 H              1 <1>                0.0000
     18 H18         30.2066  39.2666  35.3896 H              1 <1>                0.0000
@<TRIPOS>BOND
    1    1    2 1     
    2    2    3 1     
    3    2    4 1     
    4    2   14 1     
    5    4    5 1     
    6    5    6 ar    
    7    5   11 ar    
    8    6    7 ar    
    9    6   15 1     
   10    7    8 ar    
   11    7   16 1     
   12    8    9 ar    
   13    8   17 1     
   14    9   10 1     
   15    9   11 ar    
   16   11   12 1     
   17   12   13 2     
   18   12   18 1     
@<TRIPOS>SUBSTRUCTURE
      1 ****           1
@<TRIPOS>COMMENT
> <Gold.Version>
2022.2.0

> <Gold.Id.Protein>
1qkm|1qkm_protein|mol2

> <Gold.Protein.RotatedTorsions>
[  496  491  490  487 ] final  -80.31 input  -89.99 | X-H torsion

> <Gold.Protein.ActiveResidues>
 MET295  LEU298  THR299  LEU301  ALA302  GLU305  TRP335  MET336  LEU339  MET340 
 GLY342  LEU343  ARG346  PHE356  ILE373  ILE376  PHE377  LEU380  LYS471  GLY472 
 MET473  HIS475  LEU476  LEU477  ASN478  MET479  VAL484  VAL487 

> <Gold.Protein.RotatedAtoms>
   36.6687   34.7050   41.2012 H   0  0  0  0  0  0  0  0  0  0  0  0  # atno 496  bound_to 491 

> <Gold.Score>
     Score     S(PLP)   S(hbond)     S(cho)   S(metal)  DE(clash)   DE(tors)     intcor
     42.32     -43.20       0.00       0.00       0.00       0.00       0.44       0.00

> <Gold.PLP.Fitness>
42.3184

> <Gold.PLP.PLP>
-43.2021

> <Gold.PLP.part.hbond>
0.0000

> <Gold.PLP.part.metal>
0.0000

> <Gold.PLP.part.buried>
-2.8622

> <Gold.PLP.part.nonpolar>
-40.5293

> <Gold.PLP.part.repulsive>
0.0370

> <Gold.PLP.ligand.clash>
0.0000

> <Gold.PLP.ligand.torsion>
0.4423

> <Gold.PLP.Chemscore.Hbond>
0.0000

> <Gold.PLP.Chemscore.CHOScore>
0.0000

> <Gold.PLP.Chemscore.Metal>
0.0000

> <Gold.PLP.Chemscore.Internal.Correction>
0.0010

