#       Name:                EN300-75805_i001
#       Creating user name   aseyller
#       Creation time:       Fri Apr 21 18:34:48 2023


#       File generated by GOLD software.
#

@<TRIPOS>MOLECULE
EN300-75805_i001|benzaldehydes|mol2|575|dock3
    18    18     1
SMALL
USER_CHARGES


@<TRIPOS>ATOM
      1 F1          32.2413  38.2103  34.0732 F              1 <1>                0.0000
      2 C2          32.3280  37.1522  34.9844 C.3            1 <1>                0.0000
      3 F3          33.5983  36.5713  34.9048 F              1 <1>                0.0000
      4 O4          32.1114  37.6445  36.3082 O.3            1 <1>                0.0000
      5 C5          31.6433  36.7613  37.2246 C.ar           1 <1>                0.0000
      6 C6          32.3168  35.5710  37.4523 C.ar           1 <1>                0.0000
      7 C7          31.8399  34.6718  38.3855 C.ar           1 <1>                0.0000
      8 C8          30.6870  34.9480  39.1024 C.ar           1 <1>                0.0000
      9 C9          30.0015  36.1254  38.8915 C.ar           1 <1>                0.0000
     10 Cl10        28.5576  36.4651  39.7934 Cl             1 <1>                0.0000
     11 C11         30.4769  37.0506  37.9521 C.ar           1 <1>                0.0000
     12 C12         29.7545  38.3060  37.7208 C.2            1 <1>                0.0000
     13 O13         30.1932  39.1231  36.9388 O.2            1 <1>                0.0000
     14 H14         31.5713  36.4047  34.7463 H              1 <1>                0.0000
     15 H15         33.2162  35.3463  36.8982 H              1 <1>                0.0000
     16 H16         32.3693  33.7463  38.5576 H              1 <1>                0.0000
     17 H17         30.3232  34.2374  39.8298 H              1 <1>                0.0000
     18 H18         28.8320  38.5031  38.2467 H              1 <1>                0.0000
@<TRIPOS>BOND
    1    1    2 1     
    2    2    3 1     
    3    2    4 1     
    4    2   14 1     
    5    4    5 1     
    6    5    6 ar    
    7    5   11 ar    
    8    6    7 ar    
    9    6   15 1     
   10    7    8 ar    
   11    7   16 1     
   12    8    9 ar    
   13    8   17 1     
   14    9   10 1     
   15    9   11 ar    
   16   11   12 1     
   17   12   13 2     
   18   12   18 1     
@<TRIPOS>SUBSTRUCTURE
      1 ****           1
@<TRIPOS>COMMENT
> <Gold.Version>
2022.2.0

> <Gold.Id.Protein>
1qkm|1qkm_protein|mol2

> <Gold.Protein.RotatedTorsions>
[  496  491  490  487 ] final  159.36 input  -89.99 | X-H torsion

> <Gold.Protein.ActiveResidues>
 MET295  LEU298  THR299  LEU301  ALA302  GLU305  TRP335  MET336  LEU339  MET340 
 GLY342  LEU343  ARG346  PHE356  ILE373  ILE376  PHE377  LEU380  LYS471  GLY472 
 MET473  HIS475  LEU476  LEU477  ASN478  MET479  VAL484  VAL487 

> <Gold.Protein.RotatedAtoms>
   37.2950   33.1982   41.0779 H   0  0  0  0  0  0  0  0  0  0  0  0  # atno 496  bound_to 491 

> <Gold.Score>
     Score     S(PLP)   S(hbond)     S(cho)   S(metal)  DE(clash)   DE(tors)     intcor
     45.29     -45.91       0.00       0.00       0.00       0.00       0.31       0.00

> <Gold.PLP.Fitness>
45.2856

> <Gold.PLP.PLP>
-45.9110

> <Gold.PLP.part.hbond>
0.0000

> <Gold.PLP.part.metal>
0.0000

> <Gold.PLP.part.buried>
-2.5531

> <Gold.PLP.part.nonpolar>
-43.8099

> <Gold.PLP.part.repulsive>
0.0002

> <Gold.PLP.ligand.clash>
0.0000

> <Gold.PLP.ligand.torsion>
0.3132

> <Gold.PLP.Chemscore.Hbond>
0.0000

> <Gold.PLP.Chemscore.CHOScore>
0.0000

> <Gold.PLP.Chemscore.Metal>
0.0000

> <Gold.PLP.Chemscore.Internal.Correction>
0.0010

