#       Name:                EN300-75805_i001
#       Creating user name   aseyller
#       Creation time:       Fri Apr 21 18:34:57 2023


#       File generated by GOLD software.
#

@<TRIPOS>MOLECULE
EN300-75805_i001|benzaldehydes|mol2|575|dock17
    18    18     1
SMALL
USER_CHARGES


@<TRIPOS>ATOM
      1 F1          32.4367  35.6105  37.5484 F              1 <1>                0.0000
      2 C2          31.3469  34.9519  38.1279 C.3            1 <1>                0.0000
      3 F3          31.7957  33.8096  38.7995 F              1 <1>                0.0000
      4 O4          30.6998  35.8261  39.0547 O.3            1 <1>                0.0000
      5 C5          29.6771  36.5791  38.5796 C.ar           1 <1>                0.0000
      6 C6          29.8755  37.4180  37.4937 C.ar           1 <1>                0.0000
      7 C7          28.8338  38.1847  37.0101 C.ar           1 <1>                0.0000
      8 C8          27.5828  38.1245  37.6025 C.ar           1 <1>                0.0000
      9 C9          27.3637  37.2974  38.6835 C.ar           1 <1>                0.0000
     10 Cl10        25.7936  37.2269  39.4209 Cl             1 <1>                0.0000
     11 C11         28.4097  36.5086  39.1815 C.ar           1 <1>                0.0000
     12 C12         28.1862  35.6255  40.3312 C.2            1 <1>                0.0000
     13 O13         27.0737  35.5113  40.8011 O.2            1 <1>                0.0000
     14 H14         30.6417  34.6618  37.3490 H              1 <1>                0.0000
     15 H15         30.8472  37.4723  37.0253 H              1 <1>                0.0000
     16 H16         28.9954  38.8363  36.1641 H              1 <1>                0.0000
     17 H17         26.7754  38.7287  37.2158 H              1 <1>                0.0000
     18 H18         29.0122  35.0771  40.7595 H              1 <1>                0.0000
@<TRIPOS>BOND
    1    1    2 1     
    2    2    3 1     
    3    2    4 1     
    4    2   14 1     
    5    4    5 1     
    6    5    6 ar    
    7    5   11 ar    
    8    6    7 ar    
    9    6   15 1     
   10    7    8 ar    
   11    7   16 1     
   12    8    9 ar    
   13    8   17 1     
   14    9   10 1     
   15    9   11 ar    
   16   11   12 1     
   17   12   13 2     
   18   12   18 1     
@<TRIPOS>SUBSTRUCTURE
      1 ****           1
@<TRIPOS>COMMENT
> <Gold.Version>
2022.2.0

> <Gold.Id.Protein>
1qkm|1qkm_protein|mol2

> <Gold.Protein.RotatedTorsions>
[  496  491  490  487 ] final  -66.95 input  -89.99 | X-H torsion

> <Gold.Protein.ActiveResidues>
 MET295  LEU298  THR299  LEU301  ALA302  GLU305  TRP335  MET336  LEU339  MET340 
 GLY342  LEU343  ARG346  PHE356  ILE373  ILE376  PHE377  LEU380  LYS471  GLY472 
 MET473  HIS475  LEU476  LEU477  ASN478  MET479  VAL484  VAL487 

> <Gold.Protein.RotatedAtoms>
   36.5527   34.7354   41.3849 H   0  0  0  0  0  0  0  0  0  0  0  0  # atno 496  bound_to 491 

> <Gold.Score>
     Score     S(PLP)   S(hbond)     S(cho)   S(metal)  DE(clash)   DE(tors)     intcor
     44.74     -45.61       0.00       0.00       0.00       0.00       0.44       0.00

> <Gold.PLP.Fitness>
44.7442

> <Gold.PLP.PLP>
-45.6147

> <Gold.PLP.part.hbond>
0.0000

> <Gold.PLP.part.metal>
0.0000

> <Gold.PLP.part.buried>
-3.6778

> <Gold.PLP.part.nonpolar>
-42.1481

> <Gold.PLP.part.repulsive>
0.1987

> <Gold.PLP.ligand.clash>
0.0000

> <Gold.PLP.ligand.torsion>
0.4357

> <Gold.PLP.Chemscore.Hbond>
0.0000

> <Gold.PLP.Chemscore.CHOScore>
0.0000

> <Gold.PLP.Chemscore.Metal>
0.0000

> <Gold.PLP.Chemscore.Internal.Correction>
0.0010

