#       Name:                EN300-75805_i001
#       Creating user name   aseyller
#       Creation time:       Fri Apr 21 18:34:50 2023


#       File generated by GOLD software.
#

@<TRIPOS>MOLECULE
EN300-75805_i001|benzaldehydes|mol2|575|dock6
    18    18     1
SMALL
USER_CHARGES


@<TRIPOS>ATOM
      1 F1          32.7599  35.2779  37.3047 F              1 <1>                0.0000
      2 C2          31.5419  34.9786  37.9245 C.3            1 <1>                0.0000
      3 F3          31.7041  33.8679  38.7596 F              1 <1>                0.0000
      4 O4          31.1141  36.0996  38.7005 O.3            1 <1>                0.0000
      5 C5          29.7773  36.3036  38.8024 C.ar           1 <1>                0.0000
      6 C6          29.0092  35.4919  39.6229 C.ar           1 <1>                0.0000
      7 C7          27.6480  35.6999  39.7264 C.ar           1 <1>                0.0000
      8 C8          27.0365  36.7188  39.0140 C.ar           1 <1>                0.0000
      9 C9          27.7814  37.5374  38.1920 C.ar           1 <1>                0.0000
     10 Cl10        27.0087  38.8122  37.3022 Cl             1 <1>                0.0000
     11 C11         29.1649  37.3423  38.0816 C.ar           1 <1>                0.0000
     12 C12         29.9658  38.2083  37.2096 C.2            1 <1>                0.0000
     13 O13         29.4848  39.2266  36.7587 O.2            1 <1>                0.0000
     14 H14         30.7928  34.7554  37.1648 H              1 <1>                0.0000
     15 H15         29.4764  34.6946  40.1820 H              1 <1>                0.0000
     16 H16         27.0555  35.0636  40.3672 H              1 <1>                0.0000
     17 H17         25.9712  36.8723  39.1027 H              1 <1>                0.0000
     18 H18         30.9837  37.9394  36.9690 H              1 <1>                0.0000
@<TRIPOS>BOND
    1    1    2 1     
    2    2    3 1     
    3    2    4 1     
    4    2   14 1     
    5    4    5 1     
    6    5    6 ar    
    7    5   11 ar    
    8    6    7 ar    
    9    6   15 1     
   10    7    8 ar    
   11    7   16 1     
   12    8    9 ar    
   13    8   17 1     
   14    9   10 1     
   15    9   11 ar    
   16   11   12 1     
   17   12   13 2     
   18   12   18 1     
@<TRIPOS>SUBSTRUCTURE
      1 ****           1
@<TRIPOS>COMMENT
> <Gold.Version>
2022.2.0

> <Gold.Id.Protein>
1qkm|1qkm_protein|mol2

> <Gold.Protein.RotatedTorsions>
[  496  491  490  487 ] final -165.40 input  -89.99 | X-H torsion

> <Gold.Protein.ActiveResidues>
 MET295  LEU298  THR299  LEU301  ALA302  GLU305  TRP335  MET336  LEU339  MET340 
 GLY342  LEU343  ARG346  PHE356  ILE373  ILE376  PHE377  LEU380  LYS471  GLY472 
 MET473  HIS475  LEU476  LEU477  ASN478  MET479  VAL484  VAL487 

> <Gold.Protein.RotatedAtoms>
   37.2928   33.6795   40.7704 H   0  0  0  0  0  0  0  0  0  0  0  0  # atno 496  bound_to 491 

> <Gold.Score>
     Score     S(PLP)   S(hbond)     S(cho)   S(metal)  DE(clash)   DE(tors)     intcor
     43.08     -44.36       0.00       0.00       0.00       0.00       0.64       0.00

> <Gold.PLP.Fitness>
43.0798

> <Gold.PLP.PLP>
-44.3615

> <Gold.PLP.part.hbond>
0.0000

> <Gold.PLP.part.metal>
0.0000

> <Gold.PLP.part.buried>
-2.7257

> <Gold.PLP.part.nonpolar>
-41.6245

> <Gold.PLP.part.repulsive>
0.0755

> <Gold.PLP.ligand.clash>
0.0000

> <Gold.PLP.ligand.torsion>
0.6413

> <Gold.PLP.Chemscore.Hbond>
0.0000

> <Gold.PLP.Chemscore.CHOScore>
0.0000

> <Gold.PLP.Chemscore.Metal>
0.0000

> <Gold.PLP.Chemscore.Internal.Correction>
0.0010

