#       Name:                EN300-75805_i001
#       Creating user name   aseyller
#       Creation time:       Fri Apr 21 18:34:50 2023


#       File generated by GOLD software.
#

@<TRIPOS>MOLECULE
EN300-75805_i001|benzaldehydes|mol2|575|dock5
    18    18     1
SMALL
USER_CHARGES


@<TRIPOS>ATOM
      1 F1          27.3062  35.4978  39.8766 F              1 <1>                0.0000
      2 C2          27.5482  36.3838  38.8213 C.3            1 <1>                0.0000
      3 F3          26.5507  37.3645  38.7977 F              1 <1>                0.0000
      4 O4          28.8224  37.0046  39.0032 O.3            1 <1>                0.0000
      5 C5          29.9118  36.3025  38.6046 C.ar           1 <1>                0.0000
      6 C6          30.2004  35.0761  39.1835 C.ar           1 <1>                0.0000
      7 C7          31.3099  34.3612  38.7774 C.ar           1 <1>                0.0000
      8 C8          32.1444  34.8597  37.7902 C.ar           1 <1>                0.0000
      9 C9          31.8763  36.0772  37.2015 C.ar           1 <1>                0.0000
     10 Cl10        32.9262  36.6957  35.9650 Cl             1 <1>                0.0000
     11 C11         30.7504  36.8112  37.5989 C.ar           1 <1>                0.0000
     12 C12         30.4569  38.1075  36.9783 C.2            1 <1>                0.0000
     13 O13         29.4677  38.7276  37.3078 O.2            1 <1>                0.0000
     14 H14         27.5419  35.8365  37.8787 H              1 <1>                0.0000
     15 H15         29.5562  34.6792  39.9542 H              1 <1>                0.0000
     16 H16         31.5289  33.4068  39.2329 H              1 <1>                0.0000
     17 H17         33.0093  34.2919  37.4804 H              1 <1>                0.0000
     18 H18         31.1215  38.5099  36.2281 H              1 <1>                0.0000
@<TRIPOS>BOND
    1    1    2 1     
    2    2    3 1     
    3    2    4 1     
    4    2   14 1     
    5    4    5 1     
    6    5    6 ar    
    7    5   11 ar    
    8    6    7 ar    
    9    6   15 1     
   10    7    8 ar    
   11    7   16 1     
   12    8    9 ar    
   13    8   17 1     
   14    9   10 1     
   15    9   11 ar    
   16   11   12 1     
   17   12   13 2     
   18   12   18 1     
@<TRIPOS>SUBSTRUCTURE
      1 ****           1
@<TRIPOS>COMMENT
> <Gold.Version>
2022.2.0

> <Gold.Id.Protein>
1qkm|1qkm_protein|mol2

> <Gold.Protein.RotatedTorsions>
[  496  491  490  487 ] final   -8.57 input  -89.99 | X-H torsion

> <Gold.Protein.ActiveResidues>
 MET295  LEU298  THR299  LEU301  ALA302  GLU305  TRP335  MET336  LEU339  MET340 
 GLY342  LEU343  ARG346  PHE356  ILE373  ILE376  PHE377  LEU380  LYS471  GLY472 
 MET473  HIS475  LEU476  LEU477  ASN478  MET479  VAL484  VAL487 

> <Gold.Protein.RotatedAtoms>
   36.2609   34.3310   42.1580 H   0  0  0  0  0  0  0  0  0  0  0  0  # atno 496  bound_to 491 

> <Gold.Score>
     Score     S(PLP)   S(hbond)     S(cho)   S(metal)  DE(clash)   DE(tors)     intcor
     43.44     -43.88       0.00       0.00       0.00       0.00       0.22       0.00

> <Gold.PLP.Fitness>
43.4386

> <Gold.PLP.PLP>
-43.8825

> <Gold.PLP.part.hbond>
0.0000

> <Gold.PLP.part.metal>
0.0000

> <Gold.PLP.part.buried>
-3.3021

> <Gold.PLP.part.nonpolar>
-41.2305

> <Gold.PLP.part.repulsive>
0.0135

> <Gold.PLP.ligand.clash>
0.0000

> <Gold.PLP.ligand.torsion>
0.2224

> <Gold.PLP.Chemscore.Hbond>
0.0000

> <Gold.PLP.Chemscore.CHOScore>
0.0000

> <Gold.PLP.Chemscore.Metal>
0.0000

> <Gold.PLP.Chemscore.Internal.Correction>
0.0010

