#       Name:                EN300-75805_i001
#       Creating user name   aseyller
#       Creation time:       Fri Apr 21 18:34:56 2023


#       File generated by GOLD software.
#

@<TRIPOS>MOLECULE
EN300-75805_i001|benzaldehydes|mol2|575|dock16
    18    18     1
SMALL
USER_CHARGES


@<TRIPOS>ATOM
      1 F1          31.0397  38.2989  35.9696 F              1 <1>                0.0000
      2 C2          30.1518  38.4074  37.0453 C.3            1 <1>                0.0000
      3 F3          29.5146  39.6521  37.0003 F              1 <1>                0.0000
      4 O4          29.1742  37.3685  36.9627 O.3            1 <1>                0.0000
      5 C5          28.3341  37.2284  38.0179 C.ar           1 <1>                0.0000
      6 C6          27.0102  37.6265  37.9120 C.ar           1 <1>                0.0000
      7 C7          26.1549  37.4837  38.9867 C.ar           1 <1>                0.0000
      8 C8          26.6085  36.9427  40.1789 C.ar           1 <1>                0.0000
      9 C9          27.9211  36.5407  40.3059 C.ar           1 <1>                0.0000
     10 Cl10        28.4827  35.8636  41.8026 Cl             1 <1>                0.0000
     11 C11         28.7993  36.6737  39.2217 C.ar           1 <1>                0.0000
     12 C12         30.1976  36.2487  39.3473 C.2            1 <1>                0.0000
     13 O13         30.8735  36.0851  38.3533 O.2            1 <1>                0.0000
     14 H14         30.7022  38.3148  37.9816 H              1 <1>                0.0000
     15 H15         26.6471  38.0498  36.9871 H              1 <1>                0.0000
     16 H16         25.1250  37.7962  38.8976 H              1 <1>                0.0000
     17 H17         25.9307  36.8357  41.0128 H              1 <1>                0.0000
     18 H18         30.6256  36.0815  40.3247 H              1 <1>                0.0000
@<TRIPOS>BOND
    1    1    2 1     
    2    2    3 1     
    3    2    4 1     
    4    2   14 1     
    5    4    5 1     
    6    5    6 ar    
    7    5   11 ar    
    8    6    7 ar    
    9    6   15 1     
   10    7    8 ar    
   11    7   16 1     
   12    8    9 ar    
   13    8   17 1     
   14    9   10 1     
   15    9   11 ar    
   16   11   12 1     
   17   12   13 2     
   18   12   18 1     
@<TRIPOS>SUBSTRUCTURE
      1 ****           1
@<TRIPOS>COMMENT
> <Gold.Version>
2022.2.0

> <Gold.Id.Protein>
1qkm|1qkm_protein|mol2

> <Gold.Protein.RotatedTorsions>
[  496  491  490  487 ] final  171.33 input  -89.99 | X-H torsion

> <Gold.Protein.ActiveResidues>
 MET295  LEU298  THR299  LEU301  ALA302  GLU305  TRP335  MET336  LEU339  MET340 
 GLY342  LEU343  ARG346  PHE356  ILE373  ILE376  PHE377  LEU380  LYS471  GLY472 
 MET473  HIS475  LEU476  LEU477  ASN478  MET479  VAL484  VAL487 

> <Gold.Protein.RotatedAtoms>
   37.3166   33.3430   40.9465 H   0  0  0  0  0  0  0  0  0  0  0  0  # atno 496  bound_to 491 

> <Gold.Score>
     Score     S(PLP)   S(hbond)     S(cho)   S(metal)  DE(clash)   DE(tors)     intcor
     44.49     -44.99       0.00       0.00       0.00       0.00       0.25       0.00

> <Gold.PLP.Fitness>
44.4908

> <Gold.PLP.PLP>
-44.9878

> <Gold.PLP.part.hbond>
0.0000

> <Gold.PLP.part.metal>
0.0000

> <Gold.PLP.part.buried>
-2.9526

> <Gold.PLP.part.nonpolar>
-42.9461

> <Gold.PLP.part.repulsive>
0.0545

> <Gold.PLP.ligand.clash>
0.0000

> <Gold.PLP.ligand.torsion>
0.2490

> <Gold.PLP.Chemscore.Hbond>
0.0000

> <Gold.PLP.Chemscore.CHOScore>
0.0000

> <Gold.PLP.Chemscore.Metal>
0.0000

> <Gold.PLP.Chemscore.Internal.Correction>
0.0010

