#       Name:                EN300-75805_i001
#       Creating user name   aseyller
#       Creation time:       Fri Apr 21 18:34:51 2023


#       File generated by GOLD software.
#

@<TRIPOS>MOLECULE
EN300-75805_i001|benzaldehydes|mol2|575|dock8
    18    18     1
SMALL
USER_CHARGES


@<TRIPOS>ATOM
      1 F1          32.3962  38.1959  34.2684 F              1 <1>                0.0000
      2 C2          32.3522  37.1514  35.1981 C.3            1 <1>                0.0000
      3 F3          33.5848  36.4896  35.2147 F              1 <1>                0.0000
      4 O4          32.0783  37.6808  36.4968 O.3            1 <1>                0.0000
      5 C5          30.7977  38.0436  36.7562 C.ar           1 <1>                0.0000
      6 C6          30.2484  39.1539  36.1335 C.ar           1 <1>                0.0000
      7 C7          28.9443  39.5231  36.3978 C.ar           1 <1>                0.0000
      8 C8          28.1726  38.7906  37.2853 C.ar           1 <1>                0.0000
      9 C9          28.6991  37.6834  37.9158 C.ar           1 <1>                0.0000
     10 Cl10        27.7265  36.7702  39.0266 Cl             1 <1>                0.0000
     11 C11         30.0192  37.2929  37.6527 C.ar           1 <1>                0.0000
     12 C12         30.5881  36.1162  38.3187 C.2            1 <1>                0.0000
     13 O13         31.7652  35.8544  38.1866 O.2            1 <1>                0.0000
     14 H14         31.5667  36.4493  34.9188 H              1 <1>                0.0000
     15 H15         30.8420  39.7316  35.4404 H              1 <1>                0.0000
     16 H16         28.5228  40.3893  35.9095 H              1 <1>                0.0000
     17 H17         27.1538  39.0886  37.4844 H              1 <1>                0.0000
     18 H18         29.9591  35.4830  38.9268 H              1 <1>                0.0000
@<TRIPOS>BOND
    1    1    2 1     
    2    2    3 1     
    3    2    4 1     
    4    2   14 1     
    5    4    5 1     
    6    5    6 ar    
    7    5   11 ar    
    8    6    7 ar    
    9    6   15 1     
   10    7    8 ar    
   11    7   16 1     
   12    8    9 ar    
   13    8   17 1     
   14    9   10 1     
   15    9   11 ar    
   16   11   12 1     
   17   12   13 2     
   18   12   18 1     
@<TRIPOS>SUBSTRUCTURE
      1 ****           1
@<TRIPOS>COMMENT
> <Gold.Version>
2022.2.0

> <Gold.Id.Protein>
1qkm|1qkm_protein|mol2

> <Gold.Protein.RotatedTorsions>
[  496  491  490  487 ] final   42.88 input  -89.99 | X-H torsion

> <Gold.Protein.ActiveResidues>
 MET295  LEU298  THR299  LEU301  ALA302  GLU305  TRP335  MET336  LEU339  MET340 
 GLY342  LEU343  ARG346  PHE356  ILE373  ILE376  PHE377  LEU380  LYS471  GLY472 
 MET473  HIS475  LEU476  LEU477  ASN478  MET479  VAL484  VAL487 

> <Gold.Protein.RotatedAtoms>
   36.4225   33.5581   42.3747 H   0  0  0  0  0  0  0  0  0  0  0  0  # atno 496  bound_to 491 

> <Gold.Score>
     Score     S(PLP)   S(hbond)     S(cho)   S(metal)  DE(clash)   DE(tors)     intcor
     42.15     -42.62       0.00       0.00       0.00       0.00       0.24       0.00

> <Gold.PLP.Fitness>
42.1459

> <Gold.PLP.PLP>
-42.6223

> <Gold.PLP.part.hbond>
0.0000

> <Gold.PLP.part.metal>
0.0000

> <Gold.PLP.part.buried>
-2.6652

> <Gold.PLP.part.nonpolar>
-39.6552

> <Gold.PLP.part.repulsive>
0.0552

> <Gold.PLP.ligand.clash>
0.0000

> <Gold.PLP.ligand.torsion>
0.2387

> <Gold.PLP.Chemscore.Hbond>
0.0000

> <Gold.PLP.Chemscore.CHOScore>
0.0000

> <Gold.PLP.Chemscore.Metal>
0.0000

> <Gold.PLP.Chemscore.Internal.Correction>
0.0010

