#       Name:                EN300-75805_i001
#       Creating user name   aseyller
#       Creation time:       Fri Apr 21 18:34:53 2023


#       File generated by GOLD software.
#

@<TRIPOS>MOLECULE
EN300-75805_i001|benzaldehydes|mol2|575|dock10
    18    18     1
SMALL
USER_CHARGES


@<TRIPOS>ATOM
      1 F1          32.0762  38.2354  34.5325 F              1 <1>                0.0000
      2 C2          32.3644  37.0343  35.1895 C.3            1 <1>                0.0000
      3 F3          33.6777  36.6482  34.9005 F              1 <1>                0.0000
      4 O4          32.2207  37.2161  36.5995 O.3            1 <1>                0.0000
      5 C5          31.7971  36.1470  37.3180 C.ar           1 <1>                0.0000
      6 C6          32.5304  34.9703  37.3141 C.ar           1 <1>                0.0000
      7 C7          32.0988  33.8816  38.0460 C.ar           1 <1>                0.0000
      8 C8          30.9322  33.9528  38.7900 C.ar           1 <1>                0.0000
      9 C9          30.1876  35.1129  38.8076 C.ar           1 <1>                0.0000
     10 Cl10        28.7269  35.1951  39.7421 Cl             1 <1>                0.0000
     11 C11         30.6164  36.2281  38.0748 C.ar           1 <1>                0.0000
     12 C12         29.8309  37.4668  38.0875 C.2            1 <1>                0.0000
     13 O13         28.6838  37.4537  38.4819 O.2            1 <1>                0.0000
     14 H14         31.6755  36.2605  34.8508 H              1 <1>                0.0000
     15 H15         33.4409  34.9047  36.7370 H              1 <1>                0.0000
     16 H16         32.6747  32.9680  38.0381 H              1 <1>                0.0000
     17 H17         30.6043  33.0951  39.3585 H              1 <1>                0.0000
     18 H18         30.2738  38.3906  37.7457 H              1 <1>                0.0000
@<TRIPOS>BOND
    1    1    2 1     
    2    2    3 1     
    3    2    4 1     
    4    2   14 1     
    5    4    5 1     
    6    5    6 ar    
    7    5   11 ar    
    8    6    7 ar    
    9    6   15 1     
   10    7    8 ar    
   11    7   16 1     
   12    8    9 ar    
   13    8   17 1     
   14    9   10 1     
   15    9   11 ar    
   16   11   12 1     
   17   12   13 2     
   18   12   18 1     
@<TRIPOS>SUBSTRUCTURE
      1 ****           1
@<TRIPOS>COMMENT
> <Gold.Version>
2022.2.0

> <Gold.Id.Protein>
1qkm|1qkm_protein|mol2

> <Gold.Protein.RotatedTorsions>
[  496  491  490  487 ] final  115.66 input  -89.99 | X-H torsion

> <Gold.Protein.ActiveResidues>
 MET295  LEU298  THR299  LEU301  ALA302  GLU305  TRP335  MET336  LEU339  MET340 
 GLY342  LEU343  ARG346  PHE356  ILE373  ILE376  PHE377  LEU380  LYS471  GLY472 
 MET473  HIS475  LEU476  LEU477  ASN478  MET479  VAL484  VAL487 

> <Gold.Protein.RotatedAtoms>
   37.0463   32.9396   41.6813 H   0  0  0  0  0  0  0  0  0  0  0  0  # atno 496  bound_to 491 

> <Gold.Score>
     Score     S(PLP)   S(hbond)     S(cho)   S(metal)  DE(clash)   DE(tors)     intcor
     44.49     -45.44       0.00       0.00       0.00       0.00       0.48       0.00

> <Gold.PLP.Fitness>
44.4868

> <Gold.PLP.PLP>
-45.4401

> <Gold.PLP.part.hbond>
0.0000

> <Gold.PLP.part.metal>
0.0000

> <Gold.PLP.part.buried>
-2.9156

> <Gold.PLP.part.nonpolar>
-42.5437

> <Gold.PLP.part.repulsive>
0.0000

> <Gold.PLP.ligand.clash>
0.0000

> <Gold.PLP.ligand.torsion>
0.4771

> <Gold.PLP.Chemscore.Hbond>
0.0000

> <Gold.PLP.Chemscore.CHOScore>
0.0000

> <Gold.PLP.Chemscore.Metal>
0.0000

> <Gold.PLP.Chemscore.Internal.Correction>
0.0010

