#       Name:                EN300-75805_i001
#       Creating user name   aseyller
#       Creation time:       Fri Apr 21 18:34:54 2023


#       File generated by GOLD software.
#

@<TRIPOS>MOLECULE
EN300-75805_i001|benzaldehydes|mol2|575|dock12
    18    18     1
SMALL
USER_CHARGES


@<TRIPOS>ATOM
      1 F1          30.5900  39.7431  35.7406 F              1 <1>                0.0000
      2 C2          31.0876  38.4640  35.4694 C.3            1 <1>                0.0000
      3 F3          31.8687  38.5037  34.3094 F              1 <1>                0.0000
      4 O4          31.8877  38.0214  36.5675 O.3            1 <1>                0.0000
      5 C5          31.3211  37.1367  37.4249 C.ar           1 <1>                0.0000
      6 C6          30.2633  37.5279  38.2314 C.ar           1 <1>                0.0000
      7 C7          29.6864  36.6268  39.1044 C.ar           1 <1>                0.0000
      8 C8          30.1566  35.3259  39.1840 C.ar           1 <1>                0.0000
      9 C9          31.2076  34.9160  38.3915 C.ar           1 <1>                0.0000
     10 Cl10        31.7916  33.2845  38.4963 Cl             1 <1>                0.0000
     11 C11         31.7990  35.8177  37.4962 C.ar           1 <1>                0.0000
     12 C12         32.9177  35.3907  36.6489 C.2            1 <1>                0.0000
     13 O13         33.3580  36.1400  35.8025 O.2            1 <1>                0.0000
     14 H14         30.2563  37.7740  35.3242 H              1 <1>                0.0000
     15 H15         29.8899  38.5399  38.1770 H              1 <1>                0.0000
     16 H16         28.8630  36.9383  39.7300 H              1 <1>                0.0000
     17 H17         29.6978  34.6297  39.8704 H              1 <1>                0.0000
     18 H18         33.3495  34.4093  36.7785 H              1 <1>                0.0000
@<TRIPOS>BOND
    1    1    2 1     
    2    2    3 1     
    3    2    4 1     
    4    2   14 1     
    5    4    5 1     
    6    5    6 ar    
    7    5   11 ar    
    8    6    7 ar    
    9    6   15 1     
   10    7    8 ar    
   11    7   16 1     
   12    8    9 ar    
   13    8   17 1     
   14    9   10 1     
   15    9   11 ar    
   16   11   12 1     
   17   12   13 2     
   18   12   18 1     
@<TRIPOS>SUBSTRUCTURE
      1 ****           1
@<TRIPOS>COMMENT
> <Gold.Version>
2022.2.0

> <Gold.Id.Protein>
1qkm|1qkm_protein|mol2

> <Gold.Protein.RotatedTorsions>
[  496  491  490  487 ] final   -5.44 input  -89.99 | X-H torsion

> <Gold.Protein.ActiveResidues>
 MET295  LEU298  THR299  LEU301  ALA302  GLU305  TRP335  MET336  LEU339  MET340 
 GLY342  LEU343  ARG346  PHE356  ILE373  ILE376  PHE377  LEU380  LYS471  GLY472 
 MET473  HIS475  LEU476  LEU477  ASN478  MET479  VAL484  VAL487 

> <Gold.Protein.RotatedAtoms>
   36.2591   34.2892   42.1882 H   0  0  0  0  0  0  0  0  0  0  0  0  # atno 496  bound_to 491 

> <Gold.Score>
     Score     S(PLP)   S(hbond)     S(cho)   S(metal)  DE(clash)   DE(tors)     intcor
     43.12     -44.43       0.00       0.00       0.00       0.00       0.66       0.00

> <Gold.PLP.Fitness>
43.1170

> <Gold.PLP.PLP>
-44.4345

> <Gold.PLP.part.hbond>
0.0000

> <Gold.PLP.part.metal>
0.0000

> <Gold.PLP.part.buried>
-2.9775

> <Gold.PLP.part.nonpolar>
-42.1894

> <Gold.PLP.part.repulsive>
0.0723

> <Gold.PLP.ligand.clash>
0.0000

> <Gold.PLP.ligand.torsion>
0.6593

> <Gold.PLP.Chemscore.Hbond>
0.0000

> <Gold.PLP.Chemscore.CHOScore>
0.0000

> <Gold.PLP.Chemscore.Metal>
0.0000

> <Gold.PLP.Chemscore.Internal.Correction>
0.0010

