#       Name:                EN300-75805_i001
#       Creating user name   aseyller
#       Creation time:       Fri Apr 21 18:34:47 2023


#       File generated by GOLD software.
#

@<TRIPOS>MOLECULE
EN300-75805_i001
    18    18     1
SMALL
USER_CHARGES


@<TRIPOS>ATOM
      1 F1           2.8816  -0.1401  -1.1412 F              1 <1>                0.0000
      2 C2           2.6125  -0.9009   0.0016 C.3            1 <1>                0.0000
      3 F3           2.8816  -0.1385   1.1434 F              1 <1>                0.0000
      4 O4           1.2376  -1.2902   0.0019 O.3            1 <1>                0.0000
      5 C5           0.3161  -0.2954   0.0013 C.ar           1 <1>                0.0000
      6 C6           0.7221   1.0303   0.0003 C.ar           1 <1>                0.0000
      7 C7          -0.2165   2.0432  -0.0003 C.ar           1 <1>                0.0000
      8 C8          -1.5700   1.7471  -0.0000 C.ar           1 <1>                0.0000
      9 C9          -1.9956   0.4358   0.0014 C.ar           1 <1>                0.0000
     10 Cl10        -3.6931   0.0720   0.0017 Cl             1 <1>                0.0000
     11 C11         -1.0546  -0.6029  -0.0043 C.ar           1 <1>                0.0000
     12 C12         -1.4978  -2.0012  -0.0029 C.2            1 <1>                0.0000
     13 O13         -2.6825  -2.2620   0.0032 O.2            1 <1>                0.0000
     14 H14          3.2421  -1.7907   0.0023 H              1 <1>                0.0000
     15 H15          1.7749   1.2714   0.0005 H              1 <1>                0.0000
     16 H16          0.1067   3.0737  -0.0007 H              1 <1>                0.0000
     17 H17         -2.2952   2.5474  -0.0005 H              1 <1>                0.0000
     18 H18         -0.7694  -2.7986  -0.0073 H              1 <1>                0.0000
@<TRIPOS>BOND
    1    1    2 1     
    2    2    3 1     
    3    2    4 1     
    4    2   14 1     
    5    4    5 1     
    6    5    6 ar    
    7    5   11 ar    
    8    6    7 ar    
    9    6   15 1     
   10    7    8 ar    
   11    7   16 1     
   12    8    9 ar    
   13    8   17 1     
   14    9   10 1     
   15    9   11 ar    
   16   11   12 1     
   17   12   13 2     
   18   12   18 1     
@<TRIPOS>SUBSTRUCTURE
      1 ****           1
