#       Name:                EN300-75805_i001
#       Creating user name   aseyller
#       Creation time:       Fri Apr 21 18:34:59 2023


#       File generated by GOLD software.
#

@<TRIPOS>MOLECULE
EN300-75805_i001|benzaldehydes|mol2|575|dock19
    18    18     1
SMALL
USER_CHARGES


@<TRIPOS>ATOM
      1 F1          27.7168  38.7847  37.3014 F              1 <1>                0.0000
      2 C2          29.0711  38.8437  36.9554 C.3            1 <1>                0.0000
      3 F3          29.4297  40.1717  36.7000 F              1 <1>                0.0000
      4 O4          29.8606  38.3359  38.0327 O.3            1 <1>                0.0000
      5 C5          30.8053  37.4139  37.7223 C.ar           1 <1>                0.0000
      6 C6          31.7775  37.7037  36.7772 C.ar           1 <1>                0.0000
      7 C7          32.7395  36.7647  36.4613 C.ar           1 <1>                0.0000
      8 C8          32.7439  35.5265  37.0830 C.ar           1 <1>                0.0000
      9 C9          31.7862  35.2174  38.0253 C.ar           1 <1>                0.0000
     10 Cl10        31.7977  33.6641  38.8005 Cl             1 <1>                0.0000
     11 C11         30.8073  36.1627  38.3608 C.ar           1 <1>                0.0000
     12 C12         29.7842  35.8430  39.3622 C.2            1 <1>                0.0000
     13 O13         28.9167  36.6501  39.6221 O.2            1 <1>                0.0000
     14 H14         29.2446  38.2426  36.0628 H              1 <1>                0.0000
     15 H15         31.7823  38.6659  36.2867 H              1 <1>                0.0000
     16 H16         33.4937  36.9969  35.7239 H              1 <1>                0.0000
     17 H17         33.5011  34.7998  36.8281 H              1 <1>                0.0000
     18 H18         29.8032  34.8890  39.8682 H              1 <1>                0.0000
@<TRIPOS>BOND
    1    1    2 1     
    2    2    3 1     
    3    2    4 1     
    4    2   14 1     
    5    4    5 1     
    6    5    6 ar    
    7    5   11 ar    
    8    6    7 ar    
    9    6   15 1     
   10    7    8 ar    
   11    7   16 1     
   12    8    9 ar    
   13    8   17 1     
   14    9   10 1     
   15    9   11 ar    
   16   11   12 1     
   17   12   13 2     
   18   12   18 1     
@<TRIPOS>SUBSTRUCTURE
      1 ****           1
@<TRIPOS>COMMENT
> <Gold.Version>
2022.2.0

> <Gold.Id.Protein>
1qkm|1qkm_protein|mol2

> <Gold.Protein.RotatedTorsions>
[  496  491  490  487 ] final  -87.46 input  -89.99 | X-H torsion

> <Gold.Protein.ActiveResidues>
 MET295  LEU298  THR299  LEU301  ALA302  GLU305  TRP335  MET336  LEU339  MET340 
 GLY342  LEU343  ARG346  PHE356  ILE373  ILE376  PHE377  LEU380  LYS471  GLY472 
 MET473  HIS475  LEU476  LEU477  ASN478  MET479  VAL484  VAL487 

> <Gold.Protein.RotatedAtoms>
   36.7339   34.6691   41.1100 H   0  0  0  0  0  0  0  0  0  0  0  0  # atno 496  bound_to 491 

> <Gold.Score>
     Score     S(PLP)   S(hbond)     S(cho)   S(metal)  DE(clash)   DE(tors)     intcor
     42.12     -43.53       0.00       0.00       0.00       0.00       0.71       0.00

> <Gold.PLP.Fitness>
42.1156

> <Gold.PLP.PLP>
-43.5265

> <Gold.PLP.part.hbond>
0.0000

> <Gold.PLP.part.metal>
0.0000

> <Gold.PLP.part.buried>
-2.7843

> <Gold.PLP.part.nonpolar>
-40.8207

> <Gold.PLP.part.repulsive>
0.0463

> <Gold.PLP.ligand.clash>
0.0000

> <Gold.PLP.ligand.torsion>
0.7059

> <Gold.PLP.Chemscore.Hbond>
0.0000

> <Gold.PLP.Chemscore.CHOScore>
0.0000

> <Gold.PLP.Chemscore.Metal>
0.0000

> <Gold.PLP.Chemscore.Internal.Correction>
0.0010

