#       Name:                EN300-75805_i001
#       Creating user name   aseyller
#       Creation time:       Fri Apr 21 18:34:49 2023


#       File generated by GOLD software.
#

@<TRIPOS>MOLECULE
EN300-75805_i001|benzaldehydes|mol2|575|dock4
    18    18     1
SMALL
USER_CHARGES


@<TRIPOS>ATOM
      1 F1          29.1092  36.9940  41.5346 F              1 <1>                0.0000
      2 C2          28.4743  36.0327  40.7409 C.3            1 <1>                0.0000
      3 F3          27.1115  35.9948  41.0549 F              1 <1>                0.0000
      4 O4          28.6362  36.3710  39.3620 O.3            1 <1>                0.0000
      5 C5          29.8671  36.1877  38.8235 C.ar           1 <1>                0.0000
      6 C6          30.5833  35.0330  39.0994 C.ar           1 <1>                0.0000
      7 C7          31.8368  34.8465  38.5510 C.ar           1 <1>                0.0000
      8 C8          32.3911  35.8080  37.7215 C.ar           1 <1>                0.0000
      9 C9          31.6965  36.9637  37.4343 C.ar           1 <1>                0.0000
     10 Cl10        32.3970  38.1642  36.3941 Cl             1 <1>                0.0000
     11 C11         30.4205  37.1641  37.9787 C.ar           1 <1>                0.0000
     12 C12         29.6738  38.3905  37.6788 C.2            1 <1>                0.0000
     13 O13         30.1706  39.2472  36.9783 O.2            1 <1>                0.0000
     14 H14         28.9179  35.0551  40.9296 H              1 <1>                0.0000
     15 H15         30.1600  34.2778  39.7452 H              1 <1>                0.0000
     16 H16         32.3894  33.9449  38.7704 H              1 <1>                0.0000
     17 H17         33.3723  35.6515  37.2981 H              1 <1>                0.0000
     18 H18         28.6816  38.5307  38.0817 H              1 <1>                0.0000
@<TRIPOS>BOND
    1    1    2 1     
    2    2    3 1     
    3    2    4 1     
    4    2   14 1     
    5    4    5 1     
    6    5    6 ar    
    7    5   11 ar    
    8    6    7 ar    
    9    6   15 1     
   10    7    8 ar    
   11    7   16 1     
   12    8    9 ar    
   13    8   17 1     
   14    9   10 1     
   15    9   11 ar    
   16   11   12 1     
   17   12   13 2     
   18   12   18 1     
@<TRIPOS>SUBSTRUCTURE
      1 ****           1
@<TRIPOS>COMMENT
> <Gold.Version>
2022.2.0

> <Gold.Id.Protein>
1qkm|1qkm_protein|mol2

> <Gold.Protein.RotatedTorsions>
[  496  491  490  487 ] final  -85.05 input  -89.99 | X-H torsion

> <Gold.Protein.ActiveResidues>
 MET295  LEU298  THR299  LEU301  ALA302  GLU305  TRP335  MET336  LEU339  MET340 
 GLY342  LEU343  ARG346  PHE356  ILE373  ILE376  PHE377  LEU380  LYS471  GLY472 
 MET473  HIS475  LEU476  LEU477  ASN478  MET479  VAL484  VAL487 

> <Gold.Protein.RotatedAtoms>
   36.7118   34.6827   41.1400 H   0  0  0  0  0  0  0  0  0  0  0  0  # atno 496  bound_to 491 

> <Gold.Score>
     Score     S(PLP)   S(hbond)     S(cho)   S(metal)  DE(clash)   DE(tors)     intcor
     43.96     -44.57       0.00       0.00       0.00       0.00       0.30       0.00

> <Gold.PLP.Fitness>
43.9627

> <Gold.PLP.PLP>
-44.5717

> <Gold.PLP.part.hbond>
0.0000

> <Gold.PLP.part.metal>
0.0000

> <Gold.PLP.part.buried>
-2.4852

> <Gold.PLP.part.nonpolar>
-42.1282

> <Gold.PLP.part.repulsive>
0.0312

> <Gold.PLP.ligand.clash>
0.0000

> <Gold.PLP.ligand.torsion>
0.3050

> <Gold.PLP.Chemscore.Hbond>
0.0000

> <Gold.PLP.Chemscore.CHOScore>
0.0000

> <Gold.PLP.Chemscore.Metal>
0.0000

> <Gold.PLP.Chemscore.Internal.Correction>
0.0010

