#       Name:                EN300-75805_i001
#       Creating user name   aseyller
#       Creation time:       Fri Apr 21 18:34:59 2023


#       File generated by GOLD software.
#

@<TRIPOS>MOLECULE
EN300-75805_i001|benzaldehydes|mol2|575|dock20
    18    18     1
SMALL
USER_CHARGES


@<TRIPOS>ATOM
      1 F1          27.7061  36.5033  38.6797 F              1 <1>                0.0000
      2 C2          28.0217  37.3938  37.6479 C.3            1 <1>                0.0000
      3 F3          27.0700  38.4186  37.6090 F              1 <1>                0.0000
      4 O4          29.3155  37.9538  37.8810 O.3            1 <1>                0.0000
      5 C5          30.3833  37.1448  37.6714 C.ar           1 <1>                0.0000
      6 C6          30.6860  36.1414  38.5791 C.ar           1 <1>                0.0000
      7 C7          31.7735  35.3177  38.3655 C.ar           1 <1>                0.0000
      8 C8          32.5718  35.4839  37.2453 C.ar           1 <1>                0.0000
      9 C9          32.2891  36.4756  36.3302 C.ar           1 <1>                0.0000
     10 Cl10        33.2935  36.6782  34.9288 Cl             1 <1>                0.0000
     11 C11         31.1850  37.3153  36.5305 C.ar           1 <1>                0.0000
     12 C12         30.8762  38.3731  35.5623 C.2            1 <1>                0.0000
     13 O13         31.5507  38.4951  34.5615 O.2            1 <1>                0.0000
     14 H14         28.0219  36.8620  36.6964 H              1 <1>                0.0000
     15 H15         30.0701  36.0040  39.4556 H              1 <1>                0.0000
     16 H16         32.0038  34.5383  39.0768 H              1 <1>                0.0000
     17 H17         33.4198  34.8338  37.0884 H              1 <1>                0.0000
     18 H18         30.0483  39.0434  35.7405 H              1 <1>                0.0000
@<TRIPOS>BOND
    1    1    2 1     
    2    2    3 1     
    3    2    4 1     
    4    2   14 1     
    5    4    5 1     
    6    5    6 ar    
    7    5   11 ar    
    8    6    7 ar    
    9    6   15 1     
   10    7    8 ar    
   11    7   16 1     
   12    8    9 ar    
   13    8   17 1     
   14    9   10 1     
   15    9   11 ar    
   16   11   12 1     
   17   12   13 2     
   18   12   18 1     
@<TRIPOS>SUBSTRUCTURE
      1 ****           1
@<TRIPOS>COMMENT
> <Gold.Version>
2022.2.0

> <Gold.Id.Protein>
1qkm|1qkm_protein|mol2

> <Gold.Protein.RotatedTorsions>
[  496  491  490  487 ] final  -43.68 input  -89.99 | X-H torsion

> <Gold.Protein.ActiveResidues>
 MET295  LEU298  THR299  LEU301  ALA302  GLU305  TRP335  MET336  LEU339  MET340 
 GLY342  LEU343  ARG346  PHE356  ILE373  ILE376  PHE377  LEU380  LYS471  GLY472 
 MET473  HIS475  LEU476  LEU477  ASN478  MET479  VAL484  VAL487 

> <Gold.Protein.RotatedAtoms>
   36.3844   34.6729   41.7203 H   0  0  0  0  0  0  0  0  0  0  0  0  # atno 496  bound_to 491 

> <Gold.Score>
     Score     S(PLP)   S(hbond)     S(cho)   S(metal)  DE(clash)   DE(tors)     intcor
     42.01     -42.54       0.00       0.00       0.00       0.00       0.27       0.00

> <Gold.PLP.Fitness>
42.0114

> <Gold.PLP.PLP>
-42.5449

> <Gold.PLP.part.hbond>
0.0000

> <Gold.PLP.part.metal>
0.0000

> <Gold.PLP.part.buried>
-3.1095

> <Gold.PLP.part.nonpolar>
-39.3793

> <Gold.PLP.part.repulsive>
0.0763

> <Gold.PLP.ligand.clash>
0.0000

> <Gold.PLP.ligand.torsion>
0.2672

> <Gold.PLP.Chemscore.Hbond>
0.0000

> <Gold.PLP.Chemscore.CHOScore>
0.0000

> <Gold.PLP.Chemscore.Metal>
0.0000

> <Gold.PLP.Chemscore.Internal.Correction>
0.0010

