#       Name:                EN300-75805_i001
#       Creating user name   aseyller
#       Creation time:       Fri Apr 21 18:34:55 2023


#       File generated by GOLD software.
#

@<TRIPOS>MOLECULE
EN300-75805_i001|benzaldehydes|mol2|575|dock13
    18    18     1
SMALL
USER_CHARGES


@<TRIPOS>ATOM
      1 F1          32.1872  38.3000  34.2842 F              1 <1>                0.0000
      2 C2          31.8758  37.3761  35.2876 C.3            1 <1>                0.0000
      3 F3          33.0039  36.5992  35.5726 F              1 <1>                0.0000
      4 O4          31.4669  38.0727  36.4664 O.3            1 <1>                0.0000
      5 C5          30.7697  37.3648  37.3892 C.ar           1 <1>                0.0000
      6 C6          31.3813  36.3312  38.0820 C.ar           1 <1>                0.0000
      7 C7          30.6711  35.6104  39.0217 C.ar           1 <1>                0.0000
      8 C8          29.3439  35.9110  39.2820 C.ar           1 <1>                0.0000
      9 C9          28.7162  36.9344  38.6042 C.ar           1 <1>                0.0000
     10 Cl10        27.0530  37.3057  38.9354 Cl             1 <1>                0.0000
     11 C11         29.4260  37.6788  37.6522 C.ar           1 <1>                0.0000
     12 C12         28.7667  38.7696  36.9261 C.2            1 <1>                0.0000
     13 O13         29.3981  39.4430  36.1391 O.2            1 <1>                0.0000
     14 H14         31.0662  36.7300  34.9481 H              1 <1>                0.0000
     15 H15         32.4154  36.0889  37.8860 H              1 <1>                0.0000
     16 H16         31.1536  34.8063  39.5575 H              1 <1>                0.0000
     17 H17         28.7982  35.3406  40.0191 H              1 <1>                0.0000
     18 H18         27.7191  38.9732  37.0920 H              1 <1>                0.0000
@<TRIPOS>BOND
    1    1    2 1     
    2    2    3 1     
    3    2    4 1     
    4    2   14 1     
    5    4    5 1     
    6    5    6 ar    
    7    5   11 ar    
    8    6    7 ar    
    9    6   15 1     
   10    7    8 ar    
   11    7   16 1     
   12    8    9 ar    
   13    8   17 1     
   14    9   10 1     
   15    9   11 ar    
   16   11   12 1     
   17   12   13 2     
   18   12   18 1     
@<TRIPOS>SUBSTRUCTURE
      1 ****           1
@<TRIPOS>COMMENT
> <Gold.Version>
2022.2.0

> <Gold.Id.Protein>
1qkm|1qkm_protein|mol2

> <Gold.Protein.RotatedTorsions>
[  496  491  490  487 ] final -174.61 input  -89.99 | X-H torsion

> <Gold.Protein.ActiveResidues>
 MET295  LEU298  THR299  LEU301  ALA302  GLU305  TRP335  MET336  LEU339  MET340 
 GLY342  LEU343  ARG346  PHE356  ILE373  ILE376  PHE377  LEU380  LYS471  GLY472 
 MET473  HIS475  LEU476  LEU477  ASN478  MET479  VAL484  VAL487 

> <Gold.Protein.RotatedAtoms>
   37.3126   33.5399   40.8261 H   0  0  0  0  0  0  0  0  0  0  0  0  # atno 496  bound_to 491 

> <Gold.Score>
     Score     S(PLP)   S(hbond)     S(cho)   S(metal)  DE(clash)   DE(tors)     intcor
     42.12     -42.53       0.00       0.00       0.00       0.00       0.21       0.00

> <Gold.PLP.Fitness>
42.1176

> <Gold.PLP.PLP>
-42.5348

> <Gold.PLP.part.hbond>
0.0000

> <Gold.PLP.part.metal>
0.0000

> <Gold.PLP.part.buried>
-2.7978

> <Gold.PLP.part.nonpolar>
-39.6131

> <Gold.PLP.part.repulsive>
0.0000

> <Gold.PLP.ligand.clash>
0.0000

> <Gold.PLP.ligand.torsion>
0.2091

> <Gold.PLP.Chemscore.Hbond>
0.0000

> <Gold.PLP.Chemscore.CHOScore>
0.0000

> <Gold.PLP.Chemscore.Metal>
0.0000

> <Gold.PLP.Chemscore.Internal.Correction>
0.0010

