#       Name:                amine_i003
#       Creating user name   fsindt
#       Creation time:       Fri Aug 11 18:08:17 2023


#       File generated by GOLD software.
#

@<TRIPOS>MOLECULE
amine_i003|amine|mol2|3|dock8
    26    26     1
SMALL
NO_CHARGES


@<TRIPOS>ATOM
      1 C1           0.2037 -14.9973   9.4844 C.3            1 <1>                0.0000
      2 C2           0.8607 -14.9143  10.8636 C.3            1 <1>                0.0000
      3 N3           1.0845 -16.2705  11.3819 N.4            1 <1>                0.0000
      4 H4           1.5484 -16.8300  10.6822 H              1 <1>                0.0000
      5 C5           1.9187 -16.2059  12.6008 C.3            1 <1>                0.0000
      6 C6           0.9071 -16.2206  13.7739 C.3            1 <1>                0.0000
      7 C7          -0.1755 -17.1963  13.2418 C.3            1 <1>                0.0000
      8 C8          -0.2080 -16.8870  11.7332 C.3            1 <1>                0.0000
      9 C9          -0.3953 -18.1819  10.9403 C.3            1 <1>                0.0000
     10 N10          0.8857 -18.8968  10.8606 N.3            1 <1>                0.0000
     11 H11          0.8562 -15.5435   8.8034 H              1 <1>                0.0000
     12 H12         -0.7511 -15.5165   9.5675 H              1 <1>                0.0000
     13 H13          0.0376 -13.9909   9.0999 H              1 <1>                0.0000
     14 H14          1.8156 -14.3950  10.7805 H              1 <1>                0.0000
     15 H15          0.2082 -14.3680  11.5448 H              1 <1>                0.0000
     16 H16          2.5769 -17.0730  12.6565 H              1 <1>                0.0000
     17 H17          2.5012 -15.2847  12.6136 H              1 <1>                0.0000
     18 H18          1.3685 -16.6073  14.6825 H              1 <1>                0.0000
     19 H19          0.4895 -15.2280  13.9418 H              1 <1>                0.0000
     20 H20          0.1182 -18.2311  13.4179 H              1 <1>                0.0000
     21 H21         -1.1423 -16.9857  13.6991 H              1 <1>                0.0000
     22 H22         -1.0209 -16.1946  11.5142 H              1 <1>                0.0000
     23 H23         -1.1318 -18.8109  11.4404 H              1 <1>                0.0000
     24 H24         -0.7423 -17.9452   9.9346 H              1 <1>                0.0000
     25 H25          0.8449 -19.6366  10.1756 H              1 <1>                0.0000
     26 H26          1.6430 -18.2607  10.6611 H              1 <1>                0.0000
@<TRIPOS>BOND
    1    1    2 1     
    2    1   11 1     
    3    1   12 1     
    4    1   13 1     
    5    2    3 1     
    6    2   14 1     
    7    2   15 1     
    8    3    4 1     
    9    3    8 1     
   10    3    5 1     
   11    5    6 1     
   12    5   16 1     
   13    5   17 1     
   14    6    7 1     
   15    6   18 1     
   16    6   19 1     
   17    7    8 1     
   18    7   20 1     
   19    7   21 1     
   20    8    9 1     
   21    8   22 1     
   22    9   10 1     
   23    9   23 1     
   24    9   24 1     
   25   10   25 1     
   26   10   26 1     
@<TRIPOS>SUBSTRUCTURE
      1 ****           1
@<TRIPOS>SET
DONOR_HYDROGENS      STATIC     ATOMS    <user>   **** ""
3 4 25 26
ATOM$RED        STATIC     ATOMS    COLORGROUP SYSTEM
3 4 25 26
@<TRIPOS>COMMENT
> <Gold.Version>
2022.2.0

> <Gold.Id.Protein>
3pbl|protein|mol2

> <Gold.Protein.RotatedTorsions>
[ 1303 1298 1297 1294 ] final  108.65 input  179.99 | X-H torsion
[ 2461 2456 2455 2452 ] final   90.83 input   30.03 | X-H torsion
[ 2515 2510 2509 2506 ] final  -69.23 input  -89.99 | X-H torsion
[ 3721 3712 3711 3710 ] final   59.15 input -179.91 | X-H torsion
[ 3841 3832 3831 3830 ] final -172.50 input -179.91 | X-H torsion
[ 3767 3762 3761 3758 ] final  150.03 input  -89.99 | X-H torsion
[ 2472 2467 2466 2463 ] final -100.58 input  -89.97 | X-H torsion

> <Gold.Protein.ActiveResidues>
 VAL82   VAL86   LEU89   PHE106  VAL107  ASP110  VAL111  MET112  CYS114  THR115 
 CYS181  SER182  ILE183  PHE188  VAL189  ILE190  SER192  SER193  SER196  TRP342 
 PHE345  PHE346  HIS349  VAL350  TYR365  THR369  GLY372  TYR373 

> <Gold.Protein.RotatedAtoms>
    4.6340   -9.9218    4.9337 H   0  0  0  0  0  0  0  0  0  0  0  0  # atno 1303 bound_to 1298
    2.1411   -8.3066    7.7328 H   0  0  0  0  0  0  0  0  0  0  0  0  # atno 2461 bound_to 2456
   -4.1946   -5.3875    9.3713 H   0  0  0  0  0  0  0  0  0  0  0  0  # atno 2472 bound_to 2467
    2.8342   -8.6436    4.4312 H   0  0  0  0  0  0  0  0  0  0  0  0  # atno 2515 bound_to 2510
   -2.5868  -17.9139   13.3942 H   0  0  0  0  0  0  0  0  0  0  0  0  # atno 3721 bound_to 3712
   -3.9189  -22.8970   11.2938 H   0  0  0  0  0  0  0  0  0  0  0  0  # atno 3767 bound_to 3762
    2.8880  -19.9667    8.3800 H   0  0  0  0  0  0  0  0  0  0  0  0  # atno 3841 bound_to 3832
    3.3427   -9.7159    3.9557 LP  0  0  0  0  0  0  0  0  0  0  0  0  # atno 4297 bound_to 1298
    4.3852   -8.4834    4.2020 LP  0  0  0  0  0  0  0  0  0  0  0  0  # atno 4298 bound_to 1298
    0.6323   -8.2149    7.1144 LP  0  0  0  0  0  0  0  0  0  0  0  0  # atno 4299 bound_to 2456
    0.9646   -9.2865    8.3009 LP  0  0  0  0  0  0  0  0  0  0  0  0  # atno 4300 bound_to 2456
    2.2626   -8.9320    5.9332 LP  0  0  0  0  0  0  0  0  0  0  0  0  # atno 4301 bound_to 2510
    2.1997   -7.4234    5.3112 LP  0  0  0  0  0  0  0  0  0  0  0  0  # atno 4302 bound_to 2510
   -2.9910  -17.4072   14.8631 LP  0  0  0  0  0  0  0  0  0  0  0  0  # atno 4306 bound_to 3712
   -3.5501  -16.6372   13.5361 LP  0  0  0  0  0  0  0  0  0  0  0  0  # atno 4307 bound_to 3712
    2.4848  -21.1544    9.3814 LP  0  0  0  0  0  0  0  0  0  0  0  0  # atno 4314 bound_to 3832
    1.4085  -19.9864    9.0020 LP  0  0  0  0  0  0  0  0  0  0  0  0  # atno 4315 bound_to 3832
   -4.9827  -23.0574   10.0652 LP  0  0  0  0  0  0  0  0  0  0  0  0  # atno 4318 bound_to 3762
   -5.2254  -21.9207   11.2122 LP  0  0  0  0  0  0  0  0  0  0  0  0  # atno 4319 bound_to 3762
   -5.5045   -5.1869    8.4172 LP  0  0  0  0  0  0  0  0  0  0  0  0  # atno 4320 bound_to 2467
   -4.0178   -4.8192    7.8507 LP  0  0  0  0  0  0  0  0  0  0  0  0  # atno 4321 bound_to 2467

> <Gold.Score>
     Score     S(PLP)   S(hbond)     S(cho)   S(metal)  DE(clash)   DE(tors)     intcor
     34.68     -24.42       3.57       0.00       0.00       0.00       0.23       0.00

> <Gold.PLP.Fitness>
34.6762

> <Gold.PLP.PLP>
-24.4162

> <Gold.PLP.part.hbond>
-3.0000

> <Gold.PLP.part.metal>
0.0000

> <Gold.PLP.part.buried>
-1.8387

> <Gold.PLP.part.nonpolar>
-20.2419

> <Gold.PLP.part.repulsive>
0.0000

> <Gold.PLP.ligand.clash>
0.0000

> <Gold.PLP.ligand.torsion>
0.2307

> <Gold.PLP.Chemscore.Hbond>
3.5733

> <Gold.PLP.Chemscore.CHOScore>
0.0000

> <Gold.PLP.Chemscore.Metal>
0.0000

> <Gold.Chemscore.Hbonds>
donor molecule, donor type, donor heavy atom, donor atom, acceptor molecule, acceptor atom, score
      L1  H     3     4       P1  1227  2.00
      L1  H    10    25       P1  3832  0.57
      L1  H    10    26       P1  1227  1.00

> <Gold.PLP.Chemscore.Internal.Correction>
0.0015

