#       Name:                amine_i003
#       Creating user name   fsindt
#       Creation time:       Fri Aug 11 18:08:19 2023


#       File generated by GOLD software.
#

@<TRIPOS>MOLECULE
amine_i003|amine|mol2|3|dock12
    26    26     1
SMALL
NO_CHARGES


@<TRIPOS>ATOM
      1 C1          -0.6999 -17.8047   9.2359 C.3            1 <1>                0.0000
      2 C2          -0.6549 -17.5925  10.7504 C.3            1 <1>                0.0000
      3 N3           0.4003 -16.6243  11.0781 N.4            1 <1>                0.0000
      4 H4           1.2786 -16.9341  10.6901 H              1 <1>                0.0000
      5 C5           0.0503 -15.2998  10.5222 C.3            1 <1>                0.0000
      6 C6          -0.6254 -14.5449  11.6939 C.3            1 <1>                0.0000
      7 C7           0.2106 -15.0346  12.9057 C.3            1 <1>                0.0000
      8 C8           0.5213 -16.4988  12.5422 C.3            1 <1>                0.0000
      9 C9           1.9457 -16.8515  12.9750 C.3            1 <1>                0.0000
     10 N10          2.2734 -18.2095  12.5204 N.3            1 <1>                0.0000
     11 H11         -0.9111 -16.8561   8.7422 H              1 <1>                0.0000
     12 H12          0.2621 -18.1862   8.8937 H              1 <1>                0.0000
     13 H13         -1.4829 -18.5231   8.9928 H              1 <1>                0.0000
     14 H14         -1.6170 -17.2109  11.0926 H              1 <1>                0.0000
     15 H15         -0.4438 -18.5410  11.2442 H              1 <1>                0.0000
     16 H16          0.9492 -14.7740  10.2001 H              1 <1>                0.0000
     17 H17         -0.6450 -15.4093   9.6900 H              1 <1>                0.0000
     18 H18         -0.5347 -13.4661  11.5674 H              1 <1>                0.0000
     19 H19         -1.6702 -14.8380  11.7964 H              1 <1>                0.0000
     20 H20          1.1296 -14.4561  12.9989 H              1 <1>                0.0000
     21 H21         -0.3743 -14.9815  13.8240 H              1 <1>                0.0000
     22 H22         -0.1923 -17.1617  13.0315 H              1 <1>                0.0000
     23 H23          2.6457 -16.1419  12.5339 H              1 <1>                0.0000
     24 H24          2.0173 -16.8050  14.0616 H              1 <1>                0.0000
     25 H25          1.5658 -18.8681  12.8094 H              1 <1>                0.0000
     26 H26          2.4037 -18.2344  11.5202 H              1 <1>                0.0000
@<TRIPOS>BOND
    1    1    2 1     
    2    1   11 1     
    3    1   12 1     
    4    1   13 1     
    5    2    3 1     
    6    2   14 1     
    7    2   15 1     
    8    3    4 1     
    9    3    8 1     
   10    3    5 1     
   11    5    6 1     
   12    5   16 1     
   13    5   17 1     
   14    6    7 1     
   15    6   18 1     
   16    6   19 1     
   17    7    8 1     
   18    7   20 1     
   19    7   21 1     
   20    8    9 1     
   21    8   22 1     
   22    9   10 1     
   23    9   23 1     
   24    9   24 1     
   25   10   25 1     
   26   10   26 1     
@<TRIPOS>SUBSTRUCTURE
      1 ****           1
@<TRIPOS>SET
DONOR_HYDROGENS      STATIC     ATOMS    <user>   **** ""
3 4 25 26
ATOM$RED        STATIC     ATOMS    COLORGROUP SYSTEM
3 4 25 26
@<TRIPOS>COMMENT
> <Gold.Version>
2022.2.0

> <Gold.Id.Protein>
3pbl|protein|mol2

> <Gold.Protein.RotatedTorsions>
[ 1303 1298 1297 1294 ] final -135.34 input  179.99 | X-H torsion
[ 2461 2456 2455 2452 ] final   84.34 input   30.03 | X-H torsion
[ 2515 2510 2509 2506 ] final -170.30 input  -89.99 | X-H torsion
[ 3721 3712 3711 3710 ] final  121.64 input -179.91 | X-H torsion
[ 3841 3832 3831 3830 ] final  126.98 input -179.91 | X-H torsion
[ 3767 3762 3761 3758 ] final -134.29 input  -89.99 | X-H torsion
[ 2472 2467 2466 2463 ] final    6.46 input  -89.97 | X-H torsion

> <Gold.Protein.ActiveResidues>
 VAL82   VAL86   LEU89   PHE106  VAL107  ASP110  VAL111  MET112  CYS114  THR115 
 CYS181  SER182  ILE183  PHE188  VAL189  ILE190  SER192  SER193  SER196  TRP342 
 PHE345  PHE346  HIS349  VAL350  TYR365  THR369  GLY372  TYR373 

> <Gold.Protein.RotatedAtoms>
    4.4361   -8.4939    4.2420 H   0  0  0  0  0  0  0  0  0  0  0  0  # atno 1303 bound_to 1298
    2.1137   -8.2385    7.6551 H   0  0  0  0  0  0  0  0  0  0  0  0  # atno 2461 bound_to 2456
   -3.8622   -4.8537    7.9917 H   0  0  0  0  0  0  0  0  0  0  0  0  # atno 2472 bound_to 2467
    2.3908   -9.1279    5.7298 H   0  0  0  0  0  0  0  0  0  0  0  0  # atno 2515 bound_to 2510
   -3.0207  -17.2118   13.0391 H   0  0  0  0  0  0  0  0  0  0  0  0  # atno 3721 bound_to 3712
   -4.6493  -22.0560   11.6066 H   0  0  0  0  0  0  0  0  0  0  0  0  # atno 3767 bound_to 3762
    3.1100  -20.6589    8.8623 H   0  0  0  0  0  0  0  0  0  0  0  0  # atno 3841 bound_to 3832
    4.5913   -9.9702    4.9222 LP  0  0  0  0  0  0  0  0  0  0  0  0  # atno 4297 bound_to 1298
    3.3346   -9.6575    3.9275 LP  0  0  0  0  0  0  0  0  0  0  0  0  # atno 4298 bound_to 1298
    0.5594   -8.2814    7.1554 LP  0  0  0  0  0  0  0  0  0  0  0  0  # atno 4299 bound_to 2456
    1.0650   -9.2882    8.3376 LP  0  0  0  0  0  0  0  0  0  0  0  0  # atno 4300 bound_to 2456
    2.1052   -7.5266    5.5879 LP  0  0  0  0  0  0  0  0  0  0  0  0  # atno 4301 bound_to 2510
    2.8007   -8.3443    4.3573 LP  0  0  0  0  0  0  0  0  0  0  0  0  # atno 4302 bound_to 2510
   -2.6255  -18.1335   14.2929 LP  0  0  0  0  0  0  0  0  0  0  0  0  # atno 4306 bound_to 3712
   -3.4147  -16.7215   14.5163 LP  0  0  0  0  0  0  0  0  0  0  0  0  # atno 4307 bound_to 3712
    1.6393  -20.7058    9.5032 LP  0  0  0  0  0  0  0  0  0  0  0  0  # atno 4314 bound_to 3832
    1.9975  -19.6354    8.3231 LP  0  0  0  0  0  0  0  0  0  0  0  0  # atno 4315 bound_to 3832
   -4.0463  -23.2785   10.7073 LP  0  0  0  0  0  0  0  0  0  0  0  0  # atno 4318 bound_to 3762
   -5.4317  -22.5404   10.2575 LP  0  0  0  0  0  0  0  0  0  0  0  0  # atno 4319 bound_to 3762
   -4.3967   -5.4278    9.4239 LP  0  0  0  0  0  0  0  0  0  0  0  0  # atno 4320 bound_to 2467
   -5.4578   -5.1120    8.2235 LP  0  0  0  0  0  0  0  0  0  0  0  0  # atno 4321 bound_to 2467

> <Gold.Score>
     Score     S(PLP)   S(hbond)     S(cho)   S(metal)  DE(clash)   DE(tors)     intcor
     33.63     -24.67       3.00       0.00       0.00       0.00       0.02       0.00

> <Gold.PLP.Fitness>
33.6322

> <Gold.PLP.PLP>
-24.6734

> <Gold.PLP.part.hbond>
-2.0000

> <Gold.PLP.part.metal>
0.0000

> <Gold.PLP.part.buried>
-3.3168

> <Gold.PLP.part.nonpolar>
-19.0797

> <Gold.PLP.part.repulsive>
0.0000

> <Gold.PLP.ligand.clash>
0.0000

> <Gold.PLP.ligand.torsion>
0.0213

> <Gold.PLP.Chemscore.Hbond>
3.0000

> <Gold.PLP.Chemscore.CHOScore>
0.0000

> <Gold.PLP.Chemscore.Metal>
0.0000

> <Gold.Chemscore.Hbonds>
donor molecule, donor type, donor heavy atom, donor atom, acceptor molecule, acceptor atom, score
      L1  H     3     4       P1  1227  2.00
      L1  H    10    26       P1  1227  1.00

> <Gold.PLP.Chemscore.Internal.Correction>
0.0015

