#       Name:                amine_i003
#       Creating user name   fsindt
#       Creation time:       Fri Aug 11 18:08:18 2023


#       File generated by GOLD software.
#

@<TRIPOS>MOLECULE
amine_i003|amine|mol2|3|dock11
    26    26     1
SMALL
NO_CHARGES


@<TRIPOS>ATOM
      1 C1          -3.7119 -10.8498  10.1223 C.3            1 <1>                0.0000
      2 C2          -2.7222  -9.8388   9.5401 C.3            1 <1>                0.0000
      3 N3          -1.3503 -10.3224   9.7456 N.4            1 <1>                0.0000
      4 H4          -0.7045  -9.7426   9.2310 H              1 <1>                0.0000
      5 C5          -1.0184 -10.2800  11.1857 C.3            1 <1>                0.0000
      6 C6          -1.3074 -11.7120  11.7007 C.3            1 <1>                0.0000
      7 C7          -0.8452 -12.5767  10.4984 C.3            1 <1>                0.0000
      8 C8          -1.2415 -11.7180   9.2826 C.3            1 <1>                0.0000
      9 C9          -0.1654 -11.8207   8.1999 C.3            1 <1>                0.0000
     10 N10          1.0516 -11.1335   8.6524 N.3            1 <1>                0.0000
     11 H11         -3.5865 -11.8103   9.6224 H              1 <1>                0.0000
     12 H12         -3.5246 -10.9684  11.1895 H              1 <1>                0.0000
     13 H13         -4.7299 -10.4909   9.9698 H              1 <1>                0.0000
     14 H14         -2.9095  -9.7202   8.4728 H              1 <1>                0.0000
     15 H15         -2.8475  -8.8783  10.0399 H              1 <1>                0.0000
     16 H16          0.0338 -10.0317  11.3254 H              1 <1>                0.0000
     17 H17         -1.6513  -9.5567  11.6998 H              1 <1>                0.0000
     18 H18         -0.7179 -11.9334  12.5904 H              1 <1>                0.0000
     19 H19         -2.3711 -11.8498  11.8947 H              1 <1>                0.0000
     20 H20          0.2333 -12.7316  10.5271 H              1 <1>                0.0000
     21 H21         -1.3724 -13.5306  10.4845 H              1 <1>                0.0000
     22 H22         -2.2006 -12.0538   8.8883 H              1 <1>                0.0000
     23 H23          0.0595 -12.8701   8.0095 H              1 <1>                0.0000
     24 H24         -0.5265 -11.3543   7.2833 H              1 <1>                0.0000
     25 H25          0.9226 -10.1327   8.6533 H              1 <1>                0.0000
     26 H26          1.3351 -11.4623   9.5631 H              1 <1>                0.0000
@<TRIPOS>BOND
    1    1    2 1     
    2    1   11 1     
    3    1   12 1     
    4    1   13 1     
    5    2    3 1     
    6    2   14 1     
    7    2   15 1     
    8    3    4 1     
    9    3    8 1     
   10    3    5 1     
   11    5    6 1     
   12    5   16 1     
   13    5   17 1     
   14    6    7 1     
   15    6   18 1     
   16    6   19 1     
   17    7    8 1     
   18    7   20 1     
   19    7   21 1     
   20    8    9 1     
   21    8   22 1     
   22    9   10 1     
   23    9   23 1     
   24    9   24 1     
   25   10   25 1     
   26   10   26 1     
@<TRIPOS>SUBSTRUCTURE
      1 ****           1
@<TRIPOS>SET
DONOR_HYDROGENS      STATIC     ATOMS    <user>   **** ""
3 4 25 26
ATOM$RED        STATIC     ATOMS    COLORGROUP SYSTEM
3 4 25 26
@<TRIPOS>COMMENT
> <Gold.Version>
2022.2.0

> <Gold.Id.Protein>
3pbl|protein|mol2

> <Gold.Protein.RotatedTorsions>
[ 1303 1298 1297 1294 ] final -174.32 input  179.99 | X-H torsion
[ 2461 2456 2455 2452 ] final  -26.00 input   30.03 | X-H torsion
[ 2515 2510 2509 2506 ] final   16.11 input  -89.99 | X-H torsion
[ 3721 3712 3711 3710 ] final   -1.87 input -179.91 | X-H torsion
[ 3841 3832 3831 3830 ] final  106.75 input -179.91 | X-H torsion
[ 3767 3762 3761 3758 ] final  -87.21 input  -89.99 | X-H torsion
[ 2472 2467 2466 2463 ] final -174.23 input  -89.97 | X-H torsion

> <Gold.Protein.ActiveResidues>
 VAL82   VAL86   LEU89   PHE106  VAL107  ASP110  VAL111  MET112  CYS114  THR115 
 CYS181  SER182  ILE183  PHE188  VAL189  ILE190  SER192  SER193  SER196  TRP342 
 PHE345  PHE346  HIS349  VAL350  TYR365  THR369  GLY372  TYR373 

> <Gold.Protein.RotatedAtoms>
    4.8222   -8.8033    4.6304 H   0  0  0  0  0  0  0  0  0  0  0  0  # atno 1303 bound_to 1298
    0.6706   -8.1841    7.0971 H   0  0  0  0  0  0  0  0  0  0  0  0  # atno 2461 bound_to 2456
   -5.2896   -5.4074    9.0923 H   0  0  0  0  0  0  0  0  0  0  0  0  # atno 2472 bound_to 2467
    2.4288   -7.4905    4.8028 H   0  0  0  0  0  0  0  0  0  0  0  0  # atno 2515 bound_to 2510
   -2.4911  -17.9454   14.2680 H   0  0  0  0  0  0  0  0  0  0  0  0  # atno 3721 bound_to 3712
   -5.2542  -21.9253   11.1772 H   0  0  0  0  0  0  0  0  0  0  0  0  # atno 3767 bound_to 3762
    2.9973  -20.8310    9.0862 H   0  0  0  0  0  0  0  0  0  0  0  0  # atno 3841 bound_to 3832
    4.0864  -10.2601    4.6837 LP  0  0  0  0  0  0  0  0  0  0  0  0  # atno 4297 bound_to 1298
    3.4533   -9.0582    3.7774 LP  0  0  0  0  0  0  0  0  0  0  0  0  # atno 4298 bound_to 1298
    0.9169   -9.2826    8.2803 LP  0  0  0  0  0  0  0  0  0  0  0  0  # atno 4299 bound_to 2456
    2.1501   -8.3414    7.7706 LP  0  0  0  0  0  0  0  0  0  0  0  0  # atno 4300 bound_to 2456
    2.7835   -9.0840    4.7761 LP  0  0  0  0  0  0  0  0  0  0  0  0  # atno 4301 bound_to 2510
    2.0844   -8.4250    6.0965 LP  0  0  0  0  0  0  0  0  0  0  0  0  # atno 4302 bound_to 2510
   -3.4522  -16.6695   14.4292 LP  0  0  0  0  0  0  0  0  0  0  0  0  # atno 4306 bound_to 3712
   -3.1994  -17.3385   12.9612 LP  0  0  0  0  0  0  0  0  0  0  0  0  # atno 4307 bound_to 3712
    1.4667  -20.4460    9.3775 LP  0  0  0  0  0  0  0  0  0  0  0  0  # atno 4314 bound_to 3832
    2.3003  -19.6964    8.1902 LP  0  0  0  0  0  0  0  0  0  0  0  0  # atno 4315 bound_to 3832
   -3.9272  -22.8655   11.3256 LP  0  0  0  0  0  0  0  0  0  0  0  0  # atno 4318 bound_to 3762
   -4.9462  -23.0840   10.0684 LP  0  0  0  0  0  0  0  0  0  0  0  0  # atno 4319 bound_to 3762
   -4.7368   -4.8323    7.6675 LP  0  0  0  0  0  0  0  0  0  0  0  0  # atno 4320 bound_to 2467
   -3.6906   -5.1539    8.8794 LP  0  0  0  0  0  0  0  0  0  0  0  0  # atno 4321 bound_to 2467

> <Gold.Score>
     Score     S(PLP)   S(hbond)     S(cho)   S(metal)  DE(clash)   DE(tors)     intcor
     39.28     -36.49       1.00       0.00       0.00       0.00       0.10       0.00

> <Gold.PLP.Fitness>
39.2782

> <Gold.PLP.PLP>
-36.4868

> <Gold.PLP.part.hbond>
-1.0000

> <Gold.PLP.part.metal>
0.0000

> <Gold.PLP.part.buried>
-3.8653

> <Gold.PLP.part.nonpolar>
-32.6579

> <Gold.PLP.part.repulsive>
0.0423

> <Gold.PLP.ligand.clash>
0.0050

> <Gold.PLP.ligand.torsion>
0.1026

> <Gold.PLP.Chemscore.Hbond>
1.0000

> <Gold.PLP.Chemscore.CHOScore>
0.0000

> <Gold.PLP.Chemscore.Metal>
0.0000

> <Gold.Chemscore.Hbonds>
donor molecule, donor type, donor heavy atom, donor atom, acceptor molecule, acceptor atom, score
      L1  H    10    25       P1  2456  1.00

> <Gold.PLP.Chemscore.Internal.Correction>
0.0015

