#       Name:                amine_i003
#       Creating user name   fsindt
#       Creation time:       Fri Aug 11 18:08:20 2023


#       File generated by GOLD software.
#

@<TRIPOS>MOLECULE
amine_i003|amine|mol2|3|dock14
    26    26     1
SMALL
NO_CHARGES


@<TRIPOS>ATOM
      1 C1           1.0953 -15.8801   6.9268 C.3            1 <1>                0.0000
      2 C2           0.1558 -15.8562   8.1341 C.3            1 <1>                0.0000
      3 N3           0.8615 -15.2924   9.2927 N.4            1 <1>                0.0000
      4 H4           1.6284 -15.8952   9.5504 H              1 <1>                0.0000
      5 C5           1.3768 -13.9482   8.9555 C.3            1 <1>                0.0000
      6 C6           0.2990 -12.9679   9.4817 C.3            1 <1>                0.0000
      7 C7          -0.1497 -13.6688  10.7911 C.3            1 <1>                0.0000
      8 C8          -0.0712 -15.1635  10.4273 C.3            1 <1>                0.0000
      9 C9           0.4541 -15.9629  11.6214 C.3            1 <1>                0.0000
     10 N10          1.8881 -15.6960  11.7965 N.3            1 <1>                0.0000
     11 H11          1.4175 -14.8645   6.6970 H              1 <1>                0.0000
     12 H12          1.9660 -16.4945   7.1561 H              1 <1>                0.0000
     13 H13          0.5716 -16.2985   6.0672 H              1 <1>                0.0000
     14 H14         -0.7149 -15.2418   7.9048 H              1 <1>                0.0000
     15 H15         -0.1665 -16.8718   8.3640 H              1 <1>                0.0000
     16 H16          2.3285 -13.7702   9.4562 H              1 <1>                0.0000
     17 H17          1.4895 -13.8448   7.8764 H              1 <1>                0.0000
     18 H18          0.7303 -11.9890   9.6909 H              1 <1>                0.0000
     19 H19         -0.5302 -12.8854   8.7791 H              1 <1>                0.0000
     20 H20          0.5328 -13.4334  11.6076 H              1 <1>                0.0000
     21 H21         -1.1711 -13.3880  11.0480 H              1 <1>                0.0000
     22 H22         -1.0577 -15.5274  10.1397 H              1 <1>                0.0000
     23 H23         -0.0833 -15.6661  12.5220 H              1 <1>                0.0000
     24 H24          0.3020 -17.0270  11.4414 H              1 <1>                0.0000
     25 H25          2.1864 -15.9233  12.7332 H              1 <1>                0.0000
     26 H26          2.4351 -16.1956  11.1115 H              1 <1>                0.0000
@<TRIPOS>BOND
    1    1    2 1     
    2    1   11 1     
    3    1   12 1     
    4    1   13 1     
    5    2    3 1     
    6    2   14 1     
    7    2   15 1     
    8    3    4 1     
    9    3    8 1     
   10    3    5 1     
   11    5    6 1     
   12    5   16 1     
   13    5   17 1     
   14    6    7 1     
   15    6   18 1     
   16    6   19 1     
   17    7    8 1     
   18    7   20 1     
   19    7   21 1     
   20    8    9 1     
   21    8   22 1     
   22    9   10 1     
   23    9   23 1     
   24    9   24 1     
   25   10   25 1     
   26   10   26 1     
@<TRIPOS>SUBSTRUCTURE
      1 ****           1
@<TRIPOS>SET
DONOR_HYDROGENS      STATIC     ATOMS    <user>   **** ""
3 4 25 26
ATOM$RED        STATIC     ATOMS    COLORGROUP SYSTEM
3 4 25 26
@<TRIPOS>COMMENT
> <Gold.Version>
2022.2.0

> <Gold.Id.Protein>
3pbl|protein|mol2

> <Gold.Protein.RotatedTorsions>
[ 1303 1298 1297 1294 ] final   81.47 input  179.99 | X-H torsion
[ 2461 2456 2455 2452 ] final  -11.85 input   30.03 | X-H torsion
[ 2515 2510 2509 2506 ] final -171.57 input  -89.99 | X-H torsion
[ 3721 3712 3711 3710 ] final   36.25 input -179.91 | X-H torsion
[ 3841 3832 3831 3830 ] final   99.22 input -179.91 | X-H torsion
[ 3767 3762 3761 3758 ] final   -6.19 input  -89.99 | X-H torsion
[ 2472 2467 2466 2463 ] final  -64.79 input  -89.97 | X-H torsion

> <Gold.Protein.ActiveResidues>
 VAL82   VAL86   LEU89   PHE106  VAL107  ASP110  VAL111  MET112  CYS114  THR115 
 CYS181  SER182  ILE183  PHE188  VAL189  ILE190  SER192  SER193  SER196  TRP342 
 PHE345  PHE346  HIS349  VAL350  TYR365  THR369  GLY372  TYR373 

> <Gold.Protein.RotatedAtoms>
    4.3025  -10.1863    4.8059 H   0  0  0  0  0  0  0  0  0  0  0  0  # atno 1303 bound_to 1298
    0.8621   -8.0639    7.0439 H   0  0  0  0  0  0  0  0  0  0  0  0  # atno 2461 bound_to 2456
   -3.7639   -5.2150    9.0242 H   0  0  0  0  0  0  0  0  0  0  0  0  # atno 2472 bound_to 2467
    2.3819   -9.1172    5.7455 H   0  0  0  0  0  0  0  0  0  0  0  0  # atno 2515 bound_to 2510
   -2.4964  -18.0230   13.7076 H   0  0  0  0  0  0  0  0  0  0  0  0  # atno 3721 bound_to 3712
   -5.3752  -22.6401   10.1897 H   0  0  0  0  0  0  0  0  0  0  0  0  # atno 3767 bound_to 3762
    2.9338  -20.8782    9.1678 H   0  0  0  0  0  0  0  0  0  0  0  0  # atno 3841 bound_to 3832
    3.3629   -9.2987    3.8079 LP  0  0  0  0  0  0  0  0  0  0  0  0  # atno 4297 bound_to 1298
    4.6967   -8.6360    4.4776 LP  0  0  0  0  0  0  0  0  0  0  0  0  # atno 4298 bound_to 1298
    0.7181   -9.2398    8.1682 LP  0  0  0  0  0  0  0  0  0  0  0  0  # atno 4299 bound_to 2456
    2.1574   -8.5043    7.9359 LP  0  0  0  0  0  0  0  0  0  0  0  0  # atno 4300 bound_to 2456
    2.1106   -7.5167    5.5702 LP  0  0  0  0  0  0  0  0  0  0  0  0  # atno 4301 bound_to 2510
    2.8043   -8.3649    4.3593 LP  0  0  0  0  0  0  0  0  0  0  0  0  # atno 4302 bound_to 2510
   -3.1817  -17.0820   14.8135 LP  0  0  0  0  0  0  0  0  0  0  0  0  # atno 4306 bound_to 3712
   -3.4638  -16.8364   13.2239 LP  0  0  0  0  0  0  0  0  0  0  0  0  # atno 4307 bound_to 3712
    1.4266  -20.3459    9.3128 LP  0  0  0  0  0  0  0  0  0  0  0  0  # atno 4314 bound_to 3832
    2.4137  -19.7419    8.1607 LP  0  0  0  0  0  0  0  0  0  0  0  0  # atno 4315 bound_to 3832
   -4.7630  -22.0022   11.5627 LP  0  0  0  0  0  0  0  0  0  0  0  0  # atno 4318 bound_to 3762
   -3.9894  -23.2327   10.8183 LP  0  0  0  0  0  0  0  0  0  0  0  0  # atno 4319 bound_to 3762
   -5.3881   -5.3680    8.9552 LP  0  0  0  0  0  0  0  0  0  0  0  0  # atno 4320 bound_to 2467
   -4.5647   -4.8106    7.6598 LP  0  0  0  0  0  0  0  0  0  0  0  0  # atno 4321 bound_to 2467

> <Gold.Score>
     Score     S(PLP)   S(hbond)     S(cho)   S(metal)  DE(clash)   DE(tors)     intcor
     33.34     -24.53       3.00       0.00       0.00       0.00       0.10       0.00

> <Gold.PLP.Fitness>
33.3359

> <Gold.PLP.PLP>
-24.5329

> <Gold.PLP.part.hbond>
-2.0000

> <Gold.PLP.part.metal>
0.0000

> <Gold.PLP.part.buried>
-2.9787

> <Gold.PLP.part.nonpolar>
-20.8599

> <Gold.PLP.part.repulsive>
0.0098

> <Gold.PLP.ligand.clash>
0.0000

> <Gold.PLP.ligand.torsion>
0.0992

> <Gold.PLP.Chemscore.Hbond>
3.0000

> <Gold.PLP.Chemscore.CHOScore>
0.0000

> <Gold.PLP.Chemscore.Metal>
0.0000

> <Gold.Chemscore.Hbonds>
donor molecule, donor type, donor heavy atom, donor atom, acceptor molecule, acceptor atom, score
      L1  H     3     4       P1  1227  2.00
      L1  H    10    26       P1  1227  1.00

> <Gold.PLP.Chemscore.Internal.Correction>
0.0015

