#       Name:                amine_i003
#       Creating user name   fsindt
#       Creation time:       Fri Aug 11 18:08:15 2023


#       File generated by GOLD software.
#

@<TRIPOS>MOLECULE
amine_i003|amine|mol2|3|dock5
    26    26     1
SMALL
NO_CHARGES


@<TRIPOS>ATOM
      1 C1           1.0828 -14.6434  10.5044 C.3            1 <1>                0.0000
      2 C2           0.1936 -15.6377  11.2537 C.3            1 <1>                0.0000
      3 N3           1.0116 -16.7577  11.7381 N.4            1 <1>                0.0000
      4 H4           1.4887 -17.1912  10.9620 H              1 <1>                0.0000
      5 C5           2.0022 -16.2629  12.7177 C.3            1 <1>                0.0000
      6 C6           1.3458 -16.5031  14.1000 C.3            1 <1>                0.0000
      7 C7           0.6172 -17.8535  13.8705 C.3            1 <1>                0.0000
      8 C8           0.1492 -17.7492  12.4068 C.3            1 <1>                0.0000
      9 C9           0.2921 -19.1072  11.7166 C.3            1 <1>                0.0000
     10 N10          0.4532 -18.9068  10.2703 N.3            1 <1>                0.0000
     11 H11          1.8531 -14.2664  11.1770 H              1 <1>                0.0000
     12 H12          1.5528 -15.1430   9.6573 H              1 <1>                0.0000
     13 H13          0.4758 -13.8124  10.1449 H              1 <1>                0.0000
     14 H14         -0.2765 -15.1381  12.1008 H              1 <1>                0.0000
     15 H15         -0.5769 -16.0148  10.5810 H              1 <1>                0.0000
     16 H16          2.9313 -16.8271  12.6357 H              1 <1>                0.0000
     17 H17          2.1881 -15.1998  12.5654 H              1 <1>                0.0000
     18 H18          2.1012 -16.5948  14.8804 H              1 <1>                0.0000
     19 H19          0.6352 -15.7116  14.3377 H              1 <1>                0.0000
     20 H20          1.3053 -18.6892  13.9977 H              1 <1>                0.0000
     21 H21         -0.2362 -17.9499  14.5419 H              1 <1>                0.0000
     22 H22         -0.8896 -17.4206  12.3722 H              1 <1>                0.0000
     23 H23          1.1662 -19.6251  12.1112 H              1 <1>                0.0000
     24 H24         -0.5998 -19.7053  11.9034 H              1 <1>                0.0000
     25 H25          1.0779 -18.1378  10.0792 H              1 <1>                0.0000
     26 H26          0.7725 -19.7521   9.8215 H              1 <1>                0.0000
@<TRIPOS>BOND
    1    1    2 1     
    2    1   11 1     
    3    1   12 1     
    4    1   13 1     
    5    2    3 1     
    6    2   14 1     
    7    2   15 1     
    8    3    4 1     
    9    3    8 1     
   10    3    5 1     
   11    5    6 1     
   12    5   16 1     
   13    5   17 1     
   14    6    7 1     
   15    6   18 1     
   16    6   19 1     
   17    7    8 1     
   18    7   20 1     
   19    7   21 1     
   20    8    9 1     
   21    8   22 1     
   22    9   10 1     
   23    9   23 1     
   24    9   24 1     
   25   10   25 1     
   26   10   26 1     
@<TRIPOS>SUBSTRUCTURE
      1 ****           1
@<TRIPOS>SET
DONOR_HYDROGENS      STATIC     ATOMS    <user>   **** ""
3 4 25 26
ATOM$RED        STATIC     ATOMS    COLORGROUP SYSTEM
3 4 25 26
@<TRIPOS>COMMENT
> <Gold.Version>
2022.2.0

> <Gold.Id.Protein>
3pbl|protein|mol2

> <Gold.Protein.RotatedTorsions>
[ 1303 1298 1297 1294 ] final  150.81 input  179.99 | X-H torsion
[ 2461 2456 2455 2452 ] final  174.91 input   30.03 | X-H torsion
[ 2515 2510 2509 2506 ] final  -37.43 input  -89.99 | X-H torsion
[ 3721 3712 3711 3710 ] final  138.13 input -179.91 | X-H torsion
[ 3841 3832 3831 3830 ] final  158.40 input -179.91 | X-H torsion
[ 3767 3762 3761 3758 ] final  -66.47 input  -89.99 | X-H torsion
[ 2472 2467 2466 2463 ] final  -64.23 input  -89.97 | X-H torsion

> <Gold.Protein.ActiveResidues>
 VAL82   VAL86   LEU89   PHE106  VAL107  ASP110  VAL111  MET112  CYS114  THR115 
 CYS181  SER182  ILE183  PHE188  VAL189  ILE190  SER192  SER193  SER196  TRP342 
 PHE345  PHE346  HIS349  VAL350  TYR365  THR369  GLY372  TYR373 

> <Gold.Protein.RotatedAtoms>
    4.9051   -9.3024    4.8817 H   0  0  0  0  0  0  0  0  0  0  0  0  # atno 1303 bound_to 1298
    1.5292   -9.1877    8.3994 H   0  0  0  0  0  0  0  0  0  0  0  0  # atno 2461 bound_to 2456
   -3.7593   -5.2118    9.0169 H   0  0  0  0  0  0  0  0  0  0  0  0  # atno 2472 bound_to 2467
    2.7548   -8.1381    4.3613 H   0  0  0  0  0  0  0  0  0  0  0  0  # atno 2515 bound_to 2510
   -3.1348  -17.0020   13.1079 H   0  0  0  0  0  0  0  0  0  0  0  0  # atno 3721 bound_to 3712
   -5.4272  -22.0153   10.8993 H   0  0  0  0  0  0  0  0  0  0  0  0  # atno 3767 bound_to 3762
    3.0972  -20.3059    8.5542 H   0  0  0  0  0  0  0  0  0  0  0  0  # atno 3841 bound_to 3832
    3.6405  -10.1850    4.3447 LP  0  0  0  0  0  0  0  0  0  0  0  0  # atno 4297 bound_to 1298
    3.8162   -8.6340    3.8650 LP  0  0  0  0  0  0  0  0  0  0  0  0  # atno 4298 bound_to 1298
    1.8581   -8.0000    7.3276 LP  0  0  0  0  0  0  0  0  0  0  0  0  # atno 4299 bound_to 2456
    0.3505   -8.6206    7.4213 LP  0  0  0  0  0  0  0  0  0  0  0  0  # atno 4300 bound_to 2456
    2.4811   -9.2134    5.5590 LP  0  0  0  0  0  0  0  0  0  0  0  0  # atno 4301 bound_to 2510
    2.0607   -7.6477    5.7554 LP  0  0  0  0  0  0  0  0  0  0  0  0  # atno 4302 bound_to 2510
   -2.6070  -18.2067   14.0288 LP  0  0  0  0  0  0  0  0  0  0  0  0  # atno 4306 bound_to 3712
   -3.3015  -16.8904   14.7009 LP  0  0  0  0  0  0  0  0  0  0  0  0  # atno 4307 bound_to 3712
    2.0480  -21.0232    9.5344 LP  0  0  0  0  0  0  0  0  0  0  0  0  # atno 4314 bound_to 3832
    1.6036  -19.7258    8.6479 LP  0  0  0  0  0  0  0  0  0  0  0  0  # atno 4315 bound_to 3832
   -4.0410  -22.6131   11.5220 LP  0  0  0  0  0  0  0  0  0  0  0  0  # atno 4318 bound_to 3762
   -4.6594  -23.2464   10.1498 LP  0  0  0  0  0  0  0  0  0  0  0  0  # atno 4319 bound_to 3762
   -5.3836   -5.3702    8.9628 LP  0  0  0  0  0  0  0  0  0  0  0  0  # atno 4320 bound_to 2467
   -4.5738   -4.8115    7.6595 LP  0  0  0  0  0  0  0  0  0  0  0  0  # atno 4321 bound_to 2467

> <Gold.Score>
     Score     S(PLP)   S(hbond)     S(cho)   S(metal)  DE(clash)   DE(tors)     intcor
     35.73     -24.52       3.92       0.00       0.00       0.00       0.28       0.00

> <Gold.PLP.Fitness>
35.7275

> <Gold.PLP.PLP>
-24.5210

> <Gold.PLP.part.hbond>
-3.0000

> <Gold.PLP.part.metal>
0.0000

> <Gold.PLP.part.buried>
-2.9612

> <Gold.PLP.part.nonpolar>
-18.9721

> <Gold.PLP.part.repulsive>
0.0000

> <Gold.PLP.ligand.clash>
0.0000

> <Gold.PLP.ligand.torsion>
0.2775

> <Gold.PLP.Chemscore.Hbond>
3.9200

> <Gold.PLP.Chemscore.CHOScore>
0.0000

> <Gold.PLP.Chemscore.Metal>
0.0000

> <Gold.Chemscore.Hbonds>
donor molecule, donor type, donor heavy atom, donor atom, acceptor molecule, acceptor atom, score
      L1  H     3     4       P1  1227  2.00
      L1  H    10    25       P1  1227  0.99
      L1  H    10    26       P1  3832  0.93

> <Gold.PLP.Chemscore.Internal.Correction>
0.0015

