#       Name:                amine_i003
#       Creating user name   fsindt
#       Creation time:       Fri Aug 11 18:08:19 2023


#       File generated by GOLD software.
#

@<TRIPOS>MOLECULE
amine_i003|amine|mol2|3|dock13
    26    26     1
SMALL
NO_CHARGES


@<TRIPOS>ATOM
      1 C1          -0.9253 -17.7033  11.5058 C.3            1 <1>                0.0000
      2 C2           0.0881 -16.6812  12.0243 C.3            1 <1>                0.0000
      3 N3           1.3818 -17.3419  12.2431 N.4            1 <1>                0.0000
      4 H4           1.7893 -17.5945  11.3553 H              1 <1>                0.0000
      5 C5           2.2915 -16.4276  12.9660 C.3            1 <1>                0.0000
      6 C6           2.1477 -16.8234  14.4566 C.3            1 <1>                0.0000
      7 C7           1.9995 -18.3647  14.3587 C.3            1 <1>                0.0000
      8 C8           1.1886 -18.5522  13.0627 C.3            1 <1>                0.0000
      9 C9           1.6986 -19.7780  12.3023 C.3            1 <1>                0.0000
     10 N10          1.2191 -19.7278  10.9146 N.3            1 <1>                0.0000
     11 H11         -0.5686 -18.1239  10.5657 H              1 <1>                0.0000
     12 H12         -1.0443 -18.5011  12.2389 H              1 <1>                0.0000
     13 H13         -1.8853 -17.2129  11.3435 H              1 <1>                0.0000
     14 H14          0.2071 -15.8833  11.2912 H              1 <1>                0.0000
     15 H15         -0.2686 -16.2604  12.9645 H              1 <1>                0.0000
     16 H16          3.3190 -16.5726  12.6322 H              1 <1>                0.0000
     17 H17          1.9857 -15.3921  12.8170 H              1 <1>                0.0000
     18 H18          3.0402 -16.5521  15.0205 H              1 <1>                0.0000
     19 H19          1.2580 -16.3728  14.8963 H              1 <1>                0.0000
     20 H20          2.9762 -18.8413  14.2759 H              1 <1>                0.0000
     21 H21          1.4508 -18.7543  15.2163 H              1 <1>                0.0000
     22 H22          0.1319 -18.6741  13.3009 H              1 <1>                0.0000
     23 H23          2.7886 -19.7827  12.3101 H              1 <1>                0.0000
     24 H24          1.3278 -20.6835  12.7823 H              1 <1>                0.0000
     25 H25          1.3945 -18.8229  10.5040 H              1 <1>                0.0000
     26 H26          1.6346 -20.4624  10.3617 H              1 <1>                0.0000
@<TRIPOS>BOND
    1    1    2 1     
    2    1   11 1     
    3    1   12 1     
    4    1   13 1     
    5    2    3 1     
    6    2   14 1     
    7    2   15 1     
    8    3    4 1     
    9    3    8 1     
   10    3    5 1     
   11    5    6 1     
   12    5   16 1     
   13    5   17 1     
   14    6    7 1     
   15    6   18 1     
   16    6   19 1     
   17    7    8 1     
   18    7   20 1     
   19    7   21 1     
   20    8    9 1     
   21    8   22 1     
   22    9   10 1     
   23    9   23 1     
   24    9   24 1     
   25   10   25 1     
   26   10   26 1     
@<TRIPOS>SUBSTRUCTURE
      1 ****           1
@<TRIPOS>SET
DONOR_HYDROGENS      STATIC     ATOMS    <user>   **** ""
3 4 25 26
ATOM$RED        STATIC     ATOMS    COLORGROUP SYSTEM
3 4 25 26
@<TRIPOS>COMMENT
> <Gold.Version>
2022.2.0

> <Gold.Id.Protein>
3pbl|protein|mol2

> <Gold.Protein.RotatedTorsions>
[ 1303 1298 1297 1294 ] final   90.48 input  179.99 | X-H torsion
[ 2461 2456 2455 2452 ] final  -39.65 input   30.03 | X-H torsion
[ 2515 2510 2509 2506 ] final  156.04 input  -89.99 | X-H torsion
[ 3721 3712 3711 3710 ] final -129.36 input -179.91 | X-H torsion
[ 3841 3832 3831 3830 ] final -134.14 input -179.91 | X-H torsion
[ 3767 3762 3761 3758 ] final   49.07 input  -89.99 | X-H torsion
[ 2472 2467 2466 2463 ] final  169.50 input  -89.97 | X-H torsion

> <Gold.Protein.ActiveResidues>
 VAL82   VAL86   LEU89   PHE106  VAL107  ASP110  VAL111  MET112  CYS114  THR115 
 CYS181  SER182  ILE183  PHE188  VAL189  ILE190  SER192  SER193  SER196  TRP342 
 PHE345  PHE346  HIS349  VAL350  TYR365  THR369  GLY372  TYR373 

> <Gold.Protein.RotatedAtoms>
    4.4208  -10.1163    4.8610 H   0  0  0  0  0  0  0  0  0  0  0  0  # atno 1303 bound_to 1298
    0.5187   -8.3243    7.1841 H   0  0  0  0  0  0  0  0  0  0  0  0  # atno 2461 bound_to 2456
   -5.4301   -5.3443    8.8744 H   0  0  0  0  0  0  0  0  0  0  0  0  # atno 2472 bound_to 2467
    2.1753   -8.7331    6.0388 H   0  0  0  0  0  0  0  0  0  0  0  0  # atno 2515 bound_to 2510
   -3.2623  -16.5968   14.2851 H   0  0  0  0  0  0  0  0  0  0  0  0  # atno 3721 bound_to 3712
   -4.7215  -23.2174   10.1234 H   0  0  0  0  0  0  0  0  0  0  0  0  # atno 3767 bound_to 3762
    2.4171  -19.6475    8.3858 H   0  0  0  0  0  0  0  0  0  0  0  0  # atno 3841 bound_to 3832
    3.3366   -9.4399    3.8444 LP  0  0  0  0  0  0  0  0  0  0  0  0  # atno 4297 bound_to 1298
    4.6046   -8.5649    4.3860 LP  0  0  0  0  0  0  0  0  0  0  0  0  # atno 4298 bound_to 1298
    1.1278   -9.2848    8.3562 LP  0  0  0  0  0  0  0  0  0  0  0  0  # atno 4299 bound_to 2456
    2.0910   -8.1990    7.6078 LP  0  0  0  0  0  0  0  0  0  0  0  0  # atno 4300 bound_to 2456
    2.2913   -7.4110    5.0878 LP  0  0  0  0  0  0  0  0  0  0  0  0  # atno 4301 bound_to 2510
    2.8303   -8.8549    4.5482 LP  0  0  0  0  0  0  0  0  0  0  0  0  # atno 4302 bound_to 2510
   -3.1128  -17.4900   12.9593 LP  0  0  0  0  0  0  0  0  0  0  0  0  # atno 4306 bound_to 3712
   -2.6485  -18.0750   14.4114 LP  0  0  0  0  0  0  0  0  0  0  0  0  # atno 4307 bound_to 3712
    2.9571  -21.0360    8.9829 LP  0  0  0  0  0  0  0  0  0  0  0  0  # atno 4314 bound_to 3832
    1.4801  -20.4735    9.3938 LP  0  0  0  0  0  0  0  0  0  0  0  0  # atno 4315 bound_to 3832
   -5.3975  -21.9894   10.9612 LP  0  0  0  0  0  0  0  0  0  0  0  0  # atno 4318 bound_to 3762
   -4.0084  -22.6685   11.4862 LP  0  0  0  0  0  0  0  0  0  0  0  0  # atno 4319 bound_to 3762
   -4.4716   -4.8033    7.6682 LP  0  0  0  0  0  0  0  0  0  0  0  0  # atno 4320 bound_to 2467
   -3.8154   -5.2459    9.0966 LP  0  0  0  0  0  0  0  0  0  0  0  0  # atno 4321 bound_to 2467

> <Gold.Score>
     Score     S(PLP)   S(hbond)     S(cho)   S(metal)  DE(clash)   DE(tors)     intcor
     35.94     -25.32       3.65       0.00       0.00       0.00       0.16       0.00

> <Gold.PLP.Fitness>
35.9370

> <Gold.PLP.PLP>
-25.3214

> <Gold.PLP.part.hbond>
-2.9598

> <Gold.PLP.part.metal>
0.0000

> <Gold.PLP.part.buried>
-3.1032

> <Gold.PLP.part.nonpolar>
-20.0636

> <Gold.PLP.part.repulsive>
0.0000

> <Gold.PLP.ligand.clash>
0.0000

> <Gold.PLP.ligand.torsion>
0.1650

> <Gold.PLP.Chemscore.Hbond>
3.6480

> <Gold.PLP.Chemscore.CHOScore>
0.0000

> <Gold.PLP.Chemscore.Metal>
0.0000

> <Gold.Chemscore.Hbonds>
donor molecule, donor type, donor heavy atom, donor atom, acceptor molecule, acceptor atom, score
      L1  H     3     4       P1  1227  2.00
      L1  H    10    25       P1  1227  0.98
      L1  H    10    26       P1  3832  0.67

> <Gold.PLP.Chemscore.Internal.Correction>
0.0015

