#       Name:                amine_i003
#       Creating user name   fsindt
#       Creation time:       Fri Aug 11 18:08:14 2023


#       File generated by GOLD software.
#

@<TRIPOS>MOLECULE
amine_i003|amine|mol2|3|dock3
    26    26     1
SMALL
NO_CHARGES


@<TRIPOS>ATOM
      1 C1          -0.6991 -17.5134   8.8581 C.3            1 <1>                0.0000
      2 C2          -0.4005 -16.2795   8.0042 C.3            1 <1>                0.0000
      3 N3           0.6654 -15.4919   8.6379 N.4            1 <1>                0.0000
      4 H4           1.3676 -16.1107   9.0148 H              1 <1>                0.0000
      5 C5           1.2800 -14.5919   7.6387 C.3            1 <1>                0.0000
      6 C6           0.5482 -13.2390   7.8219 C.3            1 <1>                0.0000
      7 C7           0.3550 -13.1930   9.3606 C.3            1 <1>                0.0000
      8 C8           0.0971 -14.6682   9.7207 C.3            1 <1>                0.0000
      9 C9           0.7848 -15.0088  11.0442 C.3            1 <1>                0.0000
     10 N10          2.2350 -15.1066  10.8315 N.3            1 <1>                0.0000
     11 H11          0.2007 -18.1225   8.9437 H              1 <1>                0.0000
     12 H12         -1.0210 -17.1990   9.8509 H              1 <1>                0.0000
     13 H13         -1.4901 -18.0978   8.3879 H              1 <1>                0.0000
     14 H14         -0.0786 -16.5939   7.0114 H              1 <1>                0.0000
     15 H15         -1.3004 -15.6704   7.9185 H              1 <1>                0.0000
     16 H16          2.3457 -14.4767   7.8365 H              1 <1>                0.0000
     17 H17          1.1194 -14.9770   6.6317 H              1 <1>                0.0000
     18 H18          1.1688 -12.4101   7.4814 H              1 <1>                0.0000
     19 H19         -0.4128 -13.2421   7.3076 H              1 <1>                0.0000
     20 H20          1.2568 -12.8272   9.8515 H              1 <1>                0.0000
     21 H21         -0.5049 -12.5764   9.6227 H              1 <1>                0.0000
     22 H22         -0.9750 -14.8485   9.8001 H              1 <1>                0.0000
     23 H23          0.5766 -14.2261  11.7738 H              1 <1>                0.0000
     24 H24          0.4070 -15.9614  11.4154 H              1 <1>                0.0000
     25 H25          2.7367 -14.9837  11.6983 H              1 <1>                0.0000
     26 H26          2.4781 -15.9828  10.3942 H              1 <1>                0.0000
@<TRIPOS>BOND
    1    1    2 1     
    2    1   11 1     
    3    1   12 1     
    4    1   13 1     
    5    2    3 1     
    6    2   14 1     
    7    2   15 1     
    8    3    4 1     
    9    3    8 1     
   10    3    5 1     
   11    5    6 1     
   12    5   16 1     
   13    5   17 1     
   14    6    7 1     
   15    6   18 1     
   16    6   19 1     
   17    7    8 1     
   18    7   20 1     
   19    7   21 1     
   20    8    9 1     
   21    8   22 1     
   22    9   10 1     
   23    9   23 1     
   24    9   24 1     
   25   10   25 1     
   26   10   26 1     
@<TRIPOS>SUBSTRUCTURE
      1 ****           1
@<TRIPOS>SET
DONOR_HYDROGENS      STATIC     ATOMS    <user>   **** ""
3 4 25 26
ATOM$RED        STATIC     ATOMS    COLORGROUP SYSTEM
3 4 25 26
@<TRIPOS>COMMENT
> <Gold.Version>
2022.2.0

> <Gold.Id.Protein>
3pbl|protein|mol2

> <Gold.Protein.RotatedTorsions>
[ 1303 1298 1297 1294 ] final  143.42 input  179.99 | X-H torsion
[ 2461 2456 2455 2452 ] final  157.99 input   30.03 | X-H torsion
[ 2515 2510 2509 2506 ] final  130.79 input  -89.99 | X-H torsion
[ 3721 3712 3711 3710 ] final   85.88 input -179.91 | X-H torsion
[ 3841 3832 3831 3830 ] final  171.65 input -179.91 | X-H torsion
[ 3767 3762 3761 3758 ] final   61.89 input  -89.99 | X-H torsion
[ 2472 2467 2466 2463 ] final -130.75 input  -89.97 | X-H torsion

> <Gold.Protein.ActiveResidues>
 VAL82   VAL86   LEU89   PHE106  VAL107  ASP110  VAL111  MET112  CYS114  THR115 
 CYS181  SER182  ILE183  PHE188  VAL189  ILE190  SER192  SER193  SER196  TRP342 
 PHE345  PHE346  HIS349  VAL350  TYR365  THR369  GLY372  TYR373 

> <Gold.Protein.RotatedAtoms>
    4.8856   -9.4181    4.9130 H   0  0  0  0  0  0  0  0  0  0  0  0  # atno 1303 bound_to 1298
    1.7703   -9.0581    8.3541 H   0  0  0  0  0  0  0  0  0  0  0  0  # atno 2461 bound_to 2456
   -4.6772   -5.4595    9.4239 H   0  0  0  0  0  0  0  0  0  0  0  0  # atno 2472 bound_to 2467
    2.0672   -8.3394    6.0939 H   0  0  0  0  0  0  0  0  0  0  0  0  # atno 2515 bound_to 2510
   -2.7541  -17.6628   13.1311 H   0  0  0  0  0  0  0  0  0  0  0  0  # atno 3721 bound_to 3712
   -4.5432  -23.2896   10.2090 H   0  0  0  0  0  0  0  0  0  0  0  0  # atno 3767 bound_to 3762
    3.0232  -20.1472    8.4579 H   0  0  0  0  0  0  0  0  0  0  0  0  # atno 3841 bound_to 3832
    3.5637  -10.1286    4.2695 LP  0  0  0  0  0  0  0  0  0  0  0  0  # atno 4297 bound_to 1298
    3.9126   -8.5746    3.9089 LP  0  0  0  0  0  0  0  0  0  0  0  0  # atno 4298 bound_to 1298
    1.6336   -7.9309    7.1802 LP  0  0  0  0  0  0  0  0  0  0  0  0  # atno 4299 bound_to 2456
    0.3340   -8.8193    7.6141 LP  0  0  0  0  0  0  0  0  0  0  0  0  # atno 4300 bound_to 2456
    2.4661   -7.5291    4.7338 LP  0  0  0  0  0  0  0  0  0  0  0  0  # atno 4301 bound_to 2510
    2.7636   -9.1307    4.8471 LP  0  0  0  0  0  0  0  0  0  0  0  0  # atno 4302 bound_to 2510
   -2.7897  -17.7788   14.7321 LP  0  0  0  0  0  0  0  0  0  0  0  0  # atno 4306 bound_to 3712
   -3.5583  -16.5555   13.9709 LP  0  0  0  0  0  0  0  0  0  0  0  0  # atno 4307 bound_to 3712
    2.2470  -21.1057    9.4850 LP  0  0  0  0  0  0  0  0  0  0  0  0  # atno 4314 bound_to 3832
    1.4901  -19.8266    8.8085 LP  0  0  0  0  0  0  0  0  0  0  0  0  # atno 4315 bound_to 3832
   -5.4717  -22.0756   10.7841 LP  0  0  0  0  0  0  0  0  0  0  0  0  # atno 4318 bound_to 3762
   -4.1124  -22.5101   11.5778 LP  0  0  0  0  0  0  0  0  0  0  0  0  # atno 4319 bound_to 3762
   -5.3269   -5.0147    7.9934 LP  0  0  0  0  0  0  0  0  0  0  0  0  # atno 4320 bound_to 2467
   -3.7128   -4.9194    8.2219 LP  0  0  0  0  0  0  0  0  0  0  0  0  # atno 4321 bound_to 2467

> <Gold.Score>
     Score     S(PLP)   S(hbond)     S(cho)   S(metal)  DE(clash)   DE(tors)     intcor
     37.03     -28.62       3.00       0.00       0.00       0.00       0.29       0.00

> <Gold.PLP.Fitness>
37.0301

> <Gold.PLP.PLP>
-28.6156

> <Gold.PLP.part.hbond>
-2.0000

> <Gold.PLP.part.metal>
0.0000

> <Gold.PLP.part.buried>
-3.3084

> <Gold.PLP.part.nonpolar>
-23.3983

> <Gold.PLP.part.repulsive>
0.0031

> <Gold.PLP.ligand.clash>
0.0000

> <Gold.PLP.ligand.torsion>
0.2935

> <Gold.PLP.Chemscore.Hbond>
3.0000

> <Gold.PLP.Chemscore.CHOScore>
0.0000

> <Gold.PLP.Chemscore.Metal>
0.0000

> <Gold.Chemscore.Hbonds>
donor molecule, donor type, donor heavy atom, donor atom, acceptor molecule, acceptor atom, score
      L1  H     3     4       P1  1227  2.00
      L1  H    10    26       P1  1227  1.00

> <Gold.PLP.Chemscore.Internal.Correction>
0.0016

