#       Name:                amine_i003
#       Creating user name   fsindt
#       Creation time:       Fri Aug 11 18:08:15 2023


#       File generated by GOLD software.
#

@<TRIPOS>MOLECULE
amine_i003|amine|mol2|3|dock4
    26    26     1
SMALL
NO_CHARGES


@<TRIPOS>ATOM
      1 C1           0.6070 -15.0143  11.1968 C.3            1 <1>                0.0000
      2 C2           0.1308 -16.1577  12.0949 C.3            1 <1>                0.0000
      3 N3           1.1686 -17.1955  12.1580 N.4            1 <1>                0.0000
      4 H4           1.4495 -17.4531  11.2238 H              1 <1>                0.0000
      5 C5           2.3373 -16.6856  12.9063 C.3            1 <1>                0.0000
      6 C6           2.1304 -17.1914  14.3558 C.3            1 <1>                0.0000
      7 C7           1.5167 -18.5955  14.1131 C.3            1 <1>                0.0000
      8 C8           0.6438 -18.3797  12.8625 C.3            1 <1>                0.0000
      9 C9           0.7305 -19.6045  11.9497 C.3            1 <1>                0.0000
     10 N10          2.0865 -19.7058  11.3938 N.3            1 <1>                0.0000
     11 H11          1.5228 -14.5880  11.6061 H              1 <1>                0.0000
     12 H12          0.8003 -15.3961  10.1943 H              1 <1>                0.0000
     13 H13         -0.1631 -14.2442  11.1499 H              1 <1>                0.0000
     14 H14         -0.0626 -15.7759  13.0974 H              1 <1>                0.0000
     15 H15         -0.7851 -16.5841  11.6856 H              1 <1>                0.0000
     16 H16          3.2600 -17.0910  12.4911 H              1 <1>                0.0000
     17 H17          2.3564 -15.5961  12.8837 H              1 <1>                0.0000
     18 H18          3.0816 -17.2668  14.8826 H              1 <1>                0.0000
     19 H19          1.4355 -16.5500  14.8977 H              1 <1>                0.0000
     20 H20          2.2986 -19.3292  13.9169 H              1 <1>                0.0000
     21 H21          0.9048 -18.9006  14.9621 H              1 <1>                0.0000
     22 H22         -0.3911 -18.2072  13.1580 H              1 <1>                0.0000
     23 H23          0.5055 -20.5028  12.5246 H              1 <1>                0.0000
     24 H24          0.0113 -19.5035  11.1369 H              1 <1>                0.0000
     25 H25          2.4136 -18.8071  11.0722 H              1 <1>                0.0000
     26 H26          2.7245 -20.1031  12.0670 H              1 <1>                0.0000
@<TRIPOS>BOND
    1    1    2 1     
    2    1   11 1     
    3    1   12 1     
    4    1   13 1     
    5    2    3 1     
    6    2   14 1     
    7    2   15 1     
    8    3    4 1     
    9    3    8 1     
   10    3    5 1     
   11    5    6 1     
   12    5   16 1     
   13    5   17 1     
   14    6    7 1     
   15    6   18 1     
   16    6   19 1     
   17    7    8 1     
   18    7   20 1     
   19    7   21 1     
   20    8    9 1     
   21    8   22 1     
   22    9   10 1     
   23    9   23 1     
   24    9   24 1     
   25   10   25 1     
   26   10   26 1     
@<TRIPOS>SUBSTRUCTURE
      1 ****           1
@<TRIPOS>SET
DONOR_HYDROGENS      STATIC     ATOMS    <user>   **** ""
3 4 25 26
ATOM$RED        STATIC     ATOMS    COLORGROUP SYSTEM
3 4 25 26
@<TRIPOS>COMMENT
> <Gold.Version>
2022.2.0

> <Gold.Id.Protein>
3pbl|protein|mol2

> <Gold.Protein.RotatedTorsions>
[ 1303 1298 1297 1294 ] final   60.88 input  179.99 | X-H torsion
[ 2461 2456 2455 2452 ] final  -59.64 input   30.03 | X-H torsion
[ 2515 2510 2509 2506 ] final  115.37 input  -89.99 | X-H torsion
[ 3721 3712 3711 3710 ] final  169.08 input -179.91 | X-H torsion
[ 3841 3832 3831 3830 ] final   15.05 input -179.91 | X-H torsion
[ 3767 3762 3761 3758 ] final  -15.80 input  -89.99 | X-H torsion
[ 2472 2467 2466 2463 ] final   95.80 input  -89.97 | X-H torsion

> <Gold.Protein.ActiveResidues>
 VAL82   VAL86   LEU89   PHE106  VAL107  ASP110  VAL111  MET112  CYS114  THR115 
 CYS181  SER182  ILE183  PHE188  VAL189  ILE190  SER192  SER193  SER196  TRP342 
 PHE345  PHE346  HIS349  VAL350  TYR365  THR369  GLY372  TYR373 

> <Gold.Protein.RotatedAtoms>
    4.0202  -10.2689    4.6417 H   0  0  0  0  0  0  0  0  0  0  0  0  # atno 1303 bound_to 1298
    0.3724   -8.5553    7.3638 H   0  0  0  0  0  0  0  0  0  0  0  0  # atno 2461 bound_to 2456
   -5.1767   -4.9461    7.8469 H   0  0  0  0  0  0  0  0  0  0  0  0  # atno 2472 bound_to 2467
    2.0347   -8.0932    6.0452 H   0  0  0  0  0  0  0  0  0  0  0  0  # atno 2515 bound_to 2510
   -3.2914  -16.6828   13.4033 H   0  0  0  0  0  0  0  0  0  0  0  0  # atno 3721 bound_to 3712
   -5.4404  -22.5213   10.2708 H   0  0  0  0  0  0  0  0  0  0  0  0  # atno 3767 bound_to 3762
    1.8862  -20.6488    9.6111 H   0  0  0  0  0  0  0  0  0  0  0  0  # atno 3841 bound_to 3832
    3.4913   -8.9888    3.7769 LP  0  0  0  0  0  0  0  0  0  0  0  0  # atno 4297 bound_to 1298
    4.8507   -8.8633    4.6729 LP  0  0  0  0  0  0  0  0  0  0  0  0  # atno 4298 bound_to 1298
    1.4451   -9.2190    8.4012 LP  0  0  0  0  0  0  0  0  0  0  0  0  # atno 4299 bound_to 2456
    1.9200   -8.0338    7.3830 LP  0  0  0  0  0  0  0  0  0  0  0  0  # atno 4300 bound_to 2456
    2.5719   -7.6796    4.5599 LP  0  0  0  0  0  0  0  0  0  0  0  0  # atno 4301 bound_to 2510
    2.6904   -9.2264    5.0697 LP  0  0  0  0  0  0  0  0  0  0  0  0  # atno 4302 bound_to 2510
   -2.6778  -18.1615   13.5248 LP  0  0  0  0  0  0  0  0  0  0  0  0  # atno 4306 bound_to 3712
   -3.0499  -17.3042   14.8639 LP  0  0  0  0  0  0  0  0  0  0  0  0  # atno 4307 bound_to 3712
    1.9248  -19.6348    8.3676 LP  0  0  0  0  0  0  0  0  0  0  0  0  # atno 4314 bound_to 3832
    3.1257  -20.7180    8.5938 LP  0  0  0  0  0  0  0  0  0  0  0  0  # atno 4315 bound_to 3832
   -4.6287  -22.0680   11.6134 LP  0  0  0  0  0  0  0  0  0  0  0  0  # atno 4318 bound_to 3762
   -4.0585  -23.2857   10.6866 LP  0  0  0  0  0  0  0  0  0  0  0  0  # atno 4319 bound_to 3762
   -3.6492   -4.9848    8.4227 LP  0  0  0  0  0  0  0  0  0  0  0  0  # atno 4320 bound_to 2467
   -4.8911   -5.4626    9.3694 LP  0  0  0  0  0  0  0  0  0  0  0  0  # atno 4321 bound_to 2467

> <Gold.Score>
     Score     S(PLP)   S(hbond)     S(cho)   S(metal)  DE(clash)   DE(tors)     intcor
     37.18     -25.91       3.81       0.00       0.00       0.00       0.07       0.00

> <Gold.PLP.Fitness>
37.1848

> <Gold.PLP.PLP>
-25.9088

> <Gold.PLP.part.hbond>
-3.0000

> <Gold.PLP.part.metal>
0.0000

> <Gold.PLP.part.buried>
-3.1190

> <Gold.PLP.part.nonpolar>
-19.9802

> <Gold.PLP.part.repulsive>
0.0000

> <Gold.PLP.ligand.clash>
0.0000

> <Gold.PLP.ligand.torsion>
0.0747

> <Gold.PLP.Chemscore.Hbond>
3.8080

> <Gold.PLP.Chemscore.CHOScore>
0.0000

> <Gold.PLP.Chemscore.Metal>
0.0000

> <Gold.Chemscore.Hbonds>
donor molecule, donor type, donor heavy atom, donor atom, acceptor molecule, acceptor atom, score
      L1  H     3     4       P1  1227  2.00
      L1  H    10    25       P1  1227  0.98
      P1  H  3832  3841       L1    10  0.83

> <Gold.PLP.Chemscore.Internal.Correction>
0.0015

