#       Name:                amine_i003
#       Creating user name   fsindt
#       Creation time:       Fri Aug 11 18:08:14 2023


#       File generated by GOLD software.
#

@<TRIPOS>MOLECULE
amine_i003|amine|mol2|3|dock2
    26    26     1
SMALL
NO_CHARGES


@<TRIPOS>ATOM
      1 C1          -0.1901 -15.7799  13.4319 C.3            1 <1>                0.0000
      2 C2           0.4632 -16.1026  12.0866 C.3            1 <1>                0.0000
      3 N3           1.4579 -17.1682  12.2683 N.4            1 <1>                0.0000
      4 H4           1.7804 -17.4897  11.3679 H              1 <1>                0.0000
      5 C5           2.6013 -16.6532  13.0515 C.3            1 <1>                0.0000
      6 C6           2.2970 -17.0650  14.5134 C.3            1 <1>                0.0000
      7 C7           1.6475 -18.4603  14.3172 C.3            1 <1>                0.0000
      8 C8           0.8531 -18.2907  13.0086 C.3            1 <1>                0.0000
      9 C9           0.9457 -19.5696  12.1740 C.3            1 <1>                0.0000
     10 N10          0.7043 -19.2505  10.7605 N.3            1 <1>                0.0000
     11 H11         -0.6804 -16.6722  13.8210 H              1 <1>                0.0000
     12 H12          0.5730 -15.4482  14.1361 H              1 <1>                0.0000
     13 H13         -0.9281 -14.9891  13.2970 H              1 <1>                0.0000
     14 H14         -0.2999 -16.4342  11.3823 H              1 <1>                0.0000
     15 H15          0.9536 -15.2103  11.6974 H              1 <1>                0.0000
     16 H16          3.5303 -17.1124  12.7134 H              1 <1>                0.0000
     17 H17          2.6608 -15.5681  12.9673 H              1 <1>                0.0000
     18 H18          3.2145 -17.1400  15.0970 H              1 <1>                0.0000
     19 H19          1.5968 -16.3702  14.9771 H              1 <1>                0.0000
     20 H20          2.4122 -19.2294  14.2083 H              1 <1>                0.0000
     21 H21          0.9793 -18.6942  15.1460 H              1 <1>                0.0000
     22 H22         -0.1897 -18.0672  13.2342 H              1 <1>                0.0000
     23 H23          1.9395 -20.0039  12.2838 H              1 <1>                0.0000
     24 H24          0.1972 -20.2832  12.5183 H              1 <1>                0.0000
     25 H25          1.1956 -18.4116  10.4902 H              1 <1>                0.0000
     26 H26          0.9580 -20.0255  10.1664 H              1 <1>                0.0000
@<TRIPOS>BOND
    1    1    2 1     
    2    1   11 1     
    3    1   12 1     
    4    1   13 1     
    5    2    3 1     
    6    2   14 1     
    7    2   15 1     
    8    3    4 1     
    9    3    8 1     
   10    3    5 1     
   11    5    6 1     
   12    5   16 1     
   13    5   17 1     
   14    6    7 1     
   15    6   18 1     
   16    6   19 1     
   17    7    8 1     
   18    7   20 1     
   19    7   21 1     
   20    8    9 1     
   21    8   22 1     
   22    9   10 1     
   23    9   23 1     
   24    9   24 1     
   25   10   25 1     
   26   10   26 1     
@<TRIPOS>SUBSTRUCTURE
      1 ****           1
@<TRIPOS>SET
DONOR_HYDROGENS      STATIC     ATOMS    <user>   **** ""
3 4 25 26
ATOM$RED        STATIC     ATOMS    COLORGROUP SYSTEM
3 4 25 26
@<TRIPOS>COMMENT
> <Gold.Version>
2022.2.0

> <Gold.Id.Protein>
3pbl|protein|mol2

> <Gold.Protein.RotatedTorsions>
[ 1303 1298 1297 1294 ] final  -84.77 input  179.99 | X-H torsion
[ 2461 2456 2455 2452 ] final   64.03 input   30.03 | X-H torsion
[ 2515 2510 2509 2506 ] final   26.07 input  -89.99 | X-H torsion
[ 3721 3712 3711 3710 ] final   37.80 input -179.91 | X-H torsion
[ 3841 3832 3831 3830 ] final  147.43 input -179.91 | X-H torsion
[ 3767 3762 3761 3758 ] final   54.24 input  -89.99 | X-H torsion
[ 2472 2467 2466 2463 ] final -120.62 input  -89.97 | X-H torsion

> <Gold.Protein.ActiveResidues>
 VAL82   VAL86   LEU89   PHE106  VAL107  ASP110  VAL111  MET112  CYS114  THR115 
 CYS181  SER182  ILE183  PHE188  VAL189  ILE190  SER192  SER193  SER196  TRP342 
 PHE345  PHE346  HIS349  VAL350  TYR365  THR369  GLY372  TYR373 

> <Gold.Protein.RotatedAtoms>
    3.7606   -8.6755    3.8431 H   0  0  0  0  0  0  0  0  0  0  0  0  # atno 1303 bound_to 1298
    1.9584   -8.0593    7.4219 H   0  0  0  0  0  0  0  0  0  0  0  0  # atno 2461 bound_to 2456
   -4.5115   -5.4447    9.4334 H   0  0  0  0  0  0  0  0  0  0  0  0  # atno 2472 bound_to 2467
    2.3591   -7.4374    4.9410 H   0  0  0  0  0  0  0  0  0  0  0  0  # atno 2515 bound_to 2510
   -2.5006  -18.0192   13.6849 H   0  0  0  0  0  0  0  0  0  0  0  0  # atno 3721 bound_to 3712
   -4.6491  -23.2503   10.1537 H   0  0  0  0  0  0  0  0  0  0  0  0  # atno 3767 bound_to 3762
    3.1283  -20.4361    8.6515 H   0  0  0  0  0  0  0  0  0  0  0  0  # atno 3841 bound_to 3832
    4.9111   -9.2337    4.8585 LP  0  0  0  0  0  0  0  0  0  0  0  0  # atno 4297 bound_to 1298
    3.6906  -10.2124    4.3902 LP  0  0  0  0  0  0  0  0  0  0  0  0  # atno 4298 bound_to 1298
    0.3919   -8.5118    7.3270 LP  0  0  0  0  0  0  0  0  0  0  0  0  # atno 4299 bound_to 2456
    1.3877   -9.2369    8.3991 LP  0  0  0  0  0  0  0  0  0  0  0  0  # atno 4300 bound_to 2456
    2.8126   -8.9793    4.6536 LP  0  0  0  0  0  0  0  0  0  0  0  0  # atno 4301 bound_to 2510
    2.1251   -8.5829    6.0807 LP  0  0  0  0  0  0  0  0  0  0  0  0  # atno 4302 bound_to 2510
   -3.1689  -17.1031   14.8215 LP  0  0  0  0  0  0  0  0  0  0  0  0  # atno 4306 bound_to 3712
   -3.4717  -16.8197   13.2421 LP  0  0  0  0  0  0  0  0  0  0  0  0  # atno 4307 bound_to 3712
    1.8913  -20.9294    9.5474 LP  0  0  0  0  0  0  0  0  0  0  0  0  # atno 4314 bound_to 3832
    1.7243  -19.6691    8.5224 LP  0  0  0  0  0  0  0  0  0  0  0  0  # atno 4315 bound_to 3832
   -5.4318  -22.0205   10.8899 LP  0  0  0  0  0  0  0  0  0  0  0  0  # atno 4318 bound_to 3762
   -4.0464  -22.6044   11.5272 LP  0  0  0  0  0  0  0  0  0  0  0  0  # atno 4319 bound_to 3762
   -5.4131   -5.0713    8.1242 LP  0  0  0  0  0  0  0  0  0  0  0  0  # atno 4320 bound_to 2467
   -3.7922   -4.8776    8.0816 LP  0  0  0  0  0  0  0  0  0  0  0  0  # atno 4321 bound_to 2467

> <Gold.Score>
     Score     S(PLP)   S(hbond)     S(cho)   S(metal)  DE(clash)   DE(tors)     intcor
     38.35     -27.28       3.87       0.00       0.00       0.00       0.27       0.00

> <Gold.PLP.Fitness>
38.3521

> <Gold.PLP.PLP>
-27.2793

> <Gold.PLP.part.hbond>
-3.0000

> <Gold.PLP.part.metal>
0.0000

> <Gold.PLP.part.buried>
-3.4337

> <Gold.PLP.part.nonpolar>
-21.3513

> <Gold.PLP.part.repulsive>
0.0000

> <Gold.PLP.ligand.clash>
0.0000

> <Gold.PLP.ligand.torsion>
0.2724

> <Gold.PLP.Chemscore.Hbond>
3.8720

> <Gold.PLP.Chemscore.CHOScore>
0.0000

> <Gold.PLP.Chemscore.Metal>
0.0000

> <Gold.Chemscore.Hbonds>
donor molecule, donor type, donor heavy atom, donor atom, acceptor molecule, acceptor atom, score
      L1  H     3     4       P1  1227  2.00
      L1  H    10    25       P1  1227  0.99
      L1  H    10    26       P1  3832  0.88

> <Gold.PLP.Chemscore.Internal.Correction>
0.0016

