#       Name:                amine_i003
#       Creating user name   fsindt
#       Creation time:       Fri Aug 11 18:08:17 2023


#       File generated by GOLD software.
#

@<TRIPOS>MOLECULE
amine_i003|amine|mol2|3|dock10
    26    26     1
SMALL
NO_CHARGES


@<TRIPOS>ATOM
      1 C1           2.5221 -17.4154  13.0995 C.3            1 <1>                0.0000
      2 C2           1.0826 -17.8486  12.8153 C.3            1 <1>                0.0000
      3 N3           1.0653 -18.7703  11.6715 N.4            1 <1>                0.0000
      4 H4           1.4629 -18.3165  10.8628 H              1 <1>                0.0000
      5 C5           1.8476 -19.9819  11.9970 C.3            1 <1>                0.0000
      6 C6           0.7987 -21.0096  12.4898 C.3            1 <1>                0.0000
      7 C7          -0.4026 -20.7031  11.5570 C.3            1 <1>                0.0000
      8 C8          -0.3225 -19.1750  11.3812 C.3            1 <1>                0.0000
      9 C9          -0.6806 -18.7971   9.9426 C.3            1 <1>                0.0000
     10 N10         -0.2775 -17.4079   9.6864 N.3            1 <1>                0.0000
     11 H11          3.1266 -18.2925  13.3305 H              1 <1>                0.0000
     12 H12          2.9304 -16.9134  12.2223 H              1 <1>                0.0000
     13 H13          2.5349 -16.7315  13.9482 H              1 <1>                0.0000
     14 H14          0.6742 -18.3506  13.6925 H              1 <1>                0.0000
     15 H15          0.4780 -16.9715  12.5843 H              1 <1>                0.0000
     16 H16          2.3562 -20.3553  11.1081 H              1 <1>                0.0000
     17 H17          2.5686 -19.7674  12.7859 H              1 <1>                0.0000
     18 H18          1.1542 -22.0299  12.3461 H              1 <1>                0.0000
     19 H19          0.5381 -20.8319  13.5331 H              1 <1>                0.0000
     20 H20         -0.2854 -21.2091  10.5988 H              1 <1>                0.0000
     21 H21         -1.3416 -20.9875  12.0319 H              1 <1>                0.0000
     22 H22         -1.0047 -18.6855  12.0763 H              1 <1>                0.0000
     23 H23         -0.1590 -19.4600   9.2522 H              1 <1>                0.0000
     24 H24         -1.7565 -18.8957   9.7981 H              1 <1>                0.0000
     25 H25          0.6937 -17.3570   9.4173 H              1 <1>                0.0000
     26 H26         -0.8688 -16.9827   8.9882 H              1 <1>                0.0000
@<TRIPOS>BOND
    1    1    2 1     
    2    1   11 1     
    3    1   12 1     
    4    1   13 1     
    5    2    3 1     
    6    2   14 1     
    7    2   15 1     
    8    3    4 1     
    9    3    8 1     
   10    3    5 1     
   11    5    6 1     
   12    5   16 1     
   13    5   17 1     
   14    6    7 1     
   15    6   18 1     
   16    6   19 1     
   17    7    8 1     
   18    7   20 1     
   19    7   21 1     
   20    8    9 1     
   21    8   22 1     
   22    9   10 1     
   23    9   23 1     
   24    9   24 1     
   25   10   25 1     
   26   10   26 1     
@<TRIPOS>SUBSTRUCTURE
      1 ****           1
@<TRIPOS>SET
DONOR_HYDROGENS      STATIC     ATOMS    <user>   **** ""
3 4 25 26
ATOM$RED        STATIC     ATOMS    COLORGROUP SYSTEM
3 4 25 26
@<TRIPOS>COMMENT
> <Gold.Version>
2022.2.0

> <Gold.Id.Protein>
3pbl|protein|mol2

> <Gold.Protein.RotatedTorsions>
[ 1303 1298 1297 1294 ] final -106.24 input  179.99 | X-H torsion
[ 2461 2456 2455 2452 ] final -117.00 input   30.03 | X-H torsion
[ 2515 2510 2509 2506 ] final  -18.19 input  -89.99 | X-H torsion
[ 3721 3712 3711 3710 ] final  129.06 input -179.91 | X-H torsion
[ 3841 3832 3831 3830 ] final    5.63 input -179.91 | X-H torsion
[ 3767 3762 3761 3758 ] final  164.96 input  -89.99 | X-H torsion
[ 2472 2467 2466 2463 ] final -146.36 input  -89.97 | X-H torsion

> <Gold.Protein.ActiveResidues>
 VAL82   VAL86   LEU89   PHE106  VAL107  ASP110  VAL111  MET112  CYS114  THR115 
 CYS181  SER182  ILE183  PHE188  VAL189  ILE190  SER192  SER193  SER196  TRP342 
 PHE345  PHE346  HIS349  VAL350  TYR365  THR369  GLY372  TYR373 

> <Gold.Protein.RotatedAtoms>
    4.0435   -8.5171    3.9782 H   0  0  0  0  0  0  0  0  0  0  0  0  # atno 1303 bound_to 1298
    0.5438   -9.1535    8.0212 H   0  0  0  0  0  0  0  0  0  0  0  0  # atno 2461 bound_to 2456
   -4.9241   -5.4622    9.3560 H   0  0  0  0  0  0  0  0  0  0  0  0  # atno 2472 bound_to 2467
    2.6568   -7.8512    4.4469 H   0  0  0  0  0  0  0  0  0  0  0  0  # atno 2515 bound_to 2510
   -3.0739  -17.1156   13.0616 H   0  0  0  0  0  0  0  0  0  0  0  0  # atno 3721 bound_to 3712
   -3.9817  -22.7187   11.4497 H   0  0  0  0  0  0  0  0  0  0  0  0  # atno 3767 bound_to 3762
    1.7883  -20.5498    9.5831 H   0  0  0  0  0  0  0  0  0  0  0  0  # atno 3841 bound_to 3832
    4.8413   -9.5683    4.9399 LP  0  0  0  0  0  0  0  0  0  0  0  0  # atno 4297 bound_to 1298
    3.4773  -10.0362    4.1736 LP  0  0  0  0  0  0  0  0  0  0  0  0  # atno 4298 bound_to 1298
    2.1056   -8.6816    8.0949 LP  0  0  0  0  0  0  0  0  0  0  0  0  # atno 4299 bound_to 2456
    1.0881   -7.9733    7.0321 LP  0  0  0  0  0  0  0  0  0  0  0  0  # atno 4300 bound_to 2456
    2.6104   -9.2575    5.2751 LP  0  0  0  0  0  0  0  0  0  0  0  0  # atno 4301 bound_to 2510
    2.0294   -7.8906    5.9537 LP  0  0  0  0  0  0  0  0  0  0  0  0  # atno 4302 bound_to 2510
   -2.6123  -18.1746   14.1766 LP  0  0  0  0  0  0  0  0  0  0  0  0  # atno 4306 bound_to 3712
   -3.3665  -16.7915   14.6066 LP  0  0  0  0  0  0  0  0  0  0  0  0  # atno 4307 bound_to 3712
    2.0606  -19.6406    8.2887 LP  0  0  0  0  0  0  0  0  0  0  0  0  # atno 4314 bound_to 3832
    3.1030  -20.8266    8.7051 LP  0  0  0  0  0  0  0  0  0  0  0  0  # atno 4315 bound_to 3832
   -4.7792  -23.1882   10.1042 LP  0  0  0  0  0  0  0  0  0  0  0  0  # atno 4318 bound_to 3762
   -5.3662  -21.9682   11.0174 LP  0  0  0  0  0  0  0  0  0  0  0  0  # atno 4319 bound_to 3762
   -5.1493   -4.9351    7.8270 LP  0  0  0  0  0  0  0  0  0  0  0  0  # atno 4320 bound_to 2467
   -3.6436   -4.9962    8.4562 LP  0  0  0  0  0  0  0  0  0  0  0  0  # atno 4321 bound_to 2467

> <Gold.Score>
     Score     S(PLP)   S(hbond)     S(cho)   S(metal)  DE(clash)   DE(tors)     intcor
     34.04     -25.21       3.00       0.00       0.00       0.00       0.09       0.00

> <Gold.PLP.Fitness>
34.0382

> <Gold.PLP.PLP>
-25.2116

> <Gold.PLP.part.hbond>
-2.0000

> <Gold.PLP.part.metal>
0.0000

> <Gold.PLP.part.buried>
-3.1017

> <Gold.PLP.part.nonpolar>
-20.2996

> <Gold.PLP.part.repulsive>
0.0000

> <Gold.PLP.ligand.clash>
0.0000

> <Gold.PLP.ligand.torsion>
0.0874

> <Gold.PLP.Chemscore.Hbond>
3.0000

> <Gold.PLP.Chemscore.CHOScore>
0.0000

> <Gold.PLP.Chemscore.Metal>
0.0000

> <Gold.Chemscore.Hbonds>
donor molecule, donor type, donor heavy atom, donor atom, acceptor molecule, acceptor atom, score
      L1  H     3     4       P1  1227  2.00
      L1  H    10    25       P1  1227  1.00

> <Gold.PLP.Chemscore.Internal.Correction>
0.0015

