#       Name:                amine_i003
#       Creating user name   fsindt
#       Creation time:       Fri Aug 11 18:08:22 2023


#       File generated by GOLD software.
#

@<TRIPOS>MOLECULE
amine_i003|amine|mol2|3|dock17
    26    26     1
SMALL
NO_CHARGES


@<TRIPOS>ATOM
      1 C1          -4.5192 -10.4967   9.9194 C.3            1 <1>                0.0000
      2 C2          -3.3421 -11.4637  10.0611 C.3            1 <1>                0.0000
      3 N3          -2.1546 -10.8873   9.4163 N.4            1 <1>                0.0000
      4 H4          -2.2910 -10.8569   8.4170 H              1 <1>                0.0000
      5 C5          -1.9244  -9.5198   9.9289 C.3            1 <1>                0.0000
      6 C6          -0.8854  -9.6927  11.0647 C.3            1 <1>                0.0000
      7 C7           0.0235 -10.8112  10.4903 C.3            1 <1>                0.0000
      8 C8          -0.9712 -11.7088   9.7306 C.3            1 <1>                0.0000
      9 C9          -0.3329 -12.2125   8.4347 C.3            1 <1>                0.0000
     10 N10          0.1914 -11.0720   7.6716 N.3            1 <1>                0.0000
     11 H11         -4.2705  -9.5490  10.3968 H              1 <1>                0.0000
     12 H12         -4.7257 -10.3281   8.8624 H              1 <1>                0.0000
     13 H13         -5.4004 -10.9245  10.3978 H              1 <1>                0.0000
     14 H14         -3.1356 -11.6324  11.1180 H              1 <1>                0.0000
     15 H15         -3.5908 -12.4115   9.5836 H              1 <1>                0.0000
     16 H16         -1.5231  -8.8819   9.1414 H              1 <1>                0.0000
     17 H17         -2.8507  -9.1012  10.3224 H              1 <1>                0.0000
     18 H18         -0.3214  -8.7733  11.2213 H              1 <1>                0.0000
     19 H19         -1.3663 -10.0161  11.9879 H              1 <1>                0.0000
     20 H20          0.7651 -10.3934   9.8094 H              1 <1>                0.0000
     21 H21          0.5066 -11.3662  11.2946 H              1 <1>                0.0000
     22 H22         -1.2613 -12.5530  10.3562 H              1 <1>                0.0000
     23 H23          0.4823 -12.8958   8.6728 H              1 <1>                0.0000
     24 H24         -1.0822 -12.7342   7.8394 H              1 <1>                0.0000
     25 H25         -0.4509 -10.7984   6.9431 H              1 <1>                0.0000
     26 H26          0.4000 -10.2948   8.2803 H              1 <1>                0.0000
@<TRIPOS>BOND
    1    1    2 1     
    2    1   11 1     
    3    1   12 1     
    4    1   13 1     
    5    2    3 1     
    6    2   14 1     
    7    2   15 1     
    8    3    4 1     
    9    3    8 1     
   10    3    5 1     
   11    5    6 1     
   12    5   16 1     
   13    5   17 1     
   14    6    7 1     
   15    6   18 1     
   16    6   19 1     
   17    7    8 1     
   18    7   20 1     
   19    7   21 1     
   20    8    9 1     
   21    8   22 1     
   22    9   10 1     
   23    9   23 1     
   24    9   24 1     
   25   10   25 1     
   26   10   26 1     
@<TRIPOS>SUBSTRUCTURE
      1 ****           1
@<TRIPOS>SET
DONOR_HYDROGENS      STATIC     ATOMS    <user>   **** ""
3 4 25 26
ATOM$RED        STATIC     ATOMS    COLORGROUP SYSTEM
3 4 25 26
@<TRIPOS>COMMENT
> <Gold.Version>
2022.2.0

> <Gold.Id.Protein>
3pbl|protein|mol2

> <Gold.Protein.RotatedTorsions>
[ 1303 1298 1297 1294 ] final  -27.00 input  179.99 | X-H torsion
[ 2461 2456 2455 2452 ] final  -16.52 input   30.03 | X-H torsion
[ 2515 2510 2509 2506 ] final -154.53 input  -89.99 | X-H torsion
[ 3721 3712 3711 3710 ] final   32.90 input -179.91 | X-H torsion
[ 3841 3832 3831 3830 ] final   53.86 input -179.91 | X-H torsion
[ 3767 3762 3761 3758 ] final  177.77 input  -89.99 | X-H torsion
[ 2472 2467 2466 2463 ] final  117.74 input  -89.97 | X-H torsion

> <Gold.Protein.ActiveResidues>
 VAL82   VAL86   LEU89   PHE106  VAL107  ASP110  VAL111  MET112  CYS114  THR115 
 CYS181  SER182  ILE183  PHE188  VAL189  ILE190  SER192  SER193  SER196  TRP342 
 PHE345  PHE346  HIS349  VAL350  TYR365  THR369  GLY372  TYR373 

> <Gold.Protein.RotatedAtoms>
    3.3327   -9.4791    3.8575 H   0  0  0  0  0  0  0  0  0  0  0  0  # atno 1303 bound_to 1298
    0.7957   -8.1003    7.0570 H   0  0  0  0  0  0  0  0  0  0  0  0  # atno 2461 bound_to 2456
   -5.4009   -5.0626    8.1017 H   0  0  0  0  0  0  0  0  0  0  0  0  # atno 2472 bound_to 2467
    2.5014   -9.2262    5.5178 H   0  0  0  0  0  0  0  0  0  0  0  0  # atno 2515 bound_to 2510
   -2.4884  -18.0294   13.7572 H   0  0  0  0  0  0  0  0  0  0  0  0  # atno 3721 bound_to 3712
   -4.0750  -22.5601   11.5519 H   0  0  0  0  0  0  0  0  0  0  0  0  # atno 3767 bound_to 3762
    2.3870  -20.9247    9.5480 H   0  0  0  0  0  0  0  0  0  0  0  0  # atno 3841 bound_to 3832
    4.5767   -8.5485    4.3603 LP  0  0  0  0  0  0  0  0  0  0  0  0  # atno 4297 bound_to 1298
    4.4531  -10.0937    4.8740 LP  0  0  0  0  0  0  0  0  0  0  0  0  # atno 4298 bound_to 1298
    0.7807   -9.2584    8.2086 LP  0  0  0  0  0  0  0  0  0  0  0  0  # atno 4299 bound_to 2456
    2.1612   -8.4493    7.8823 LP  0  0  0  0  0  0  0  0  0  0  0  0  # atno 4300 bound_to 2456
    2.0532   -7.6799    5.7896 LP  0  0  0  0  0  0  0  0  0  0  0  0  # atno 4301 bound_to 2510
    2.7420   -8.0926    4.3677 LP  0  0  0  0  0  0  0  0  0  0  0  0  # atno 4302 bound_to 2510
   -3.2090  -17.0374   14.7938 LP  0  0  0  0  0  0  0  0  0  0  0  0  # atno 4306 bound_to 3712
   -3.4457  -16.8737   13.1863 LP  0  0  0  0  0  0  0  0  0  0  0  0  # atno 4307 bound_to 3712
    1.4955  -19.8200    8.7992 LP  0  0  0  0  0  0  0  0  0  0  0  0  # atno 4314 bound_to 3832
    2.9764  -20.2141    8.2351 LP  0  0  0  0  0  0  0  0  0  0  0  0  # atno 4315 bound_to 3832
   -4.6003  -23.2703   10.1784 LP  0  0  0  0  0  0  0  0  0  0  0  0  # atno 4318 bound_to 3762
   -5.4519  -22.0446   10.8411 LP  0  0  0  0  0  0  0  0  0  0  0  0  # atno 4319 bound_to 3762
   -3.7778   -4.8838    8.1033 LP  0  0  0  0  0  0  0  0  0  0  0  0  # atno 4320 bound_to 2467
   -4.5385   -5.4471    9.4340 LP  0  0  0  0  0  0  0  0  0  0  0  0  # atno 4321 bound_to 2467

> <Gold.Score>
     Score     S(PLP)   S(hbond)     S(cho)   S(metal)  DE(clash)   DE(tors)     intcor
     38.09     -36.19       0.67       0.00       0.00       0.00       0.06       0.00

> <Gold.PLP.Fitness>
38.0939

> <Gold.PLP.PLP>
-36.1889

> <Gold.PLP.part.hbond>
-1.0000

> <Gold.PLP.part.metal>
0.0000

> <Gold.PLP.part.buried>
-2.9852

> <Gold.PLP.part.nonpolar>
-33.5459

> <Gold.PLP.part.repulsive>
0.0229

> <Gold.PLP.ligand.clash>
0.0000

> <Gold.PLP.ligand.torsion>
0.0563

> <Gold.PLP.Chemscore.Hbond>
0.6720

> <Gold.PLP.Chemscore.CHOScore>
0.0000

> <Gold.PLP.Chemscore.Metal>
0.0000

> <Gold.Chemscore.Hbonds>
donor molecule, donor type, donor heavy atom, donor atom, acceptor molecule, acceptor atom, score
      L1  H    10    26       P1  2456  0.67

> <Gold.PLP.Chemscore.Internal.Correction>
0.0015

