#       Name:                amine_i003
#       Creating user name   fsindt
#       Creation time:       Fri Aug 11 18:08:21 2023


#       File generated by GOLD software.
#

@<TRIPOS>MOLECULE
amine_i003|amine|mol2|3|dock16
    26    26     1
SMALL
NO_CHARGES


@<TRIPOS>ATOM
      1 C1           0.1943 -15.2502  11.3997 C.3            1 <1>                0.0000
      2 C2           1.5363 -15.5015  12.0901 C.3            1 <1>                0.0000
      3 N3           1.7404 -16.9473  12.2521 N.4            1 <1>                0.0000
      4 H4           1.9012 -17.3713  11.3508 H              1 <1>                0.0000
      5 C5           2.9043 -17.1900  13.1309 C.3            1 <1>                0.0000
      6 C6           2.2988 -17.3952  14.5418 C.3            1 <1>                0.0000
      7 C7           0.9968 -18.1727  14.2140 C.3            1 <1>                0.0000
      8 C8           0.5492 -17.5495  12.8784 C.3            1 <1>                0.0000
      9 C9          -0.0228 -18.6343  11.9637 C.3            1 <1>                0.0000
     10 N10         -0.0966 -18.1256  10.5875 N.3            1 <1>                0.0000
     11 H11          0.1941 -15.7291  10.4207 H              1 <1>                0.0000
     12 H12         -0.6101 -15.6647  12.0073 H              1 <1>                0.0000
     13 H13          0.0429 -14.1774  11.2796 H              1 <1>                0.0000
     14 H14          2.3408 -15.0869  11.4825 H              1 <1>                0.0000
     15 H15          1.5367 -15.0226  13.0692 H              1 <1>                0.0000
     16 H16          3.4392 -18.0852  12.8136 H              1 <1>                0.0000
     17 H17          3.5703 -16.3271  13.1256 H              1 <1>                0.0000
     18 H18          2.9621 -17.9912  15.1685 H              1 <1>                0.0000
     19 H19          2.0740 -16.4385  15.0132 H              1 <1>                0.0000
     20 H20          1.2028 -19.2363  14.0945 H              1 <1>                0.0000
     21 H21          0.2454 -18.0090  14.9865 H              1 <1>                0.0000
     22 H22         -0.2022 -16.7813  13.0611 H              1 <1>                0.0000
     23 H23          0.6234 -19.5117  11.9925 H              1 <1>                0.0000
     24 H24         -1.0216 -18.9072  12.3042 H              1 <1>                0.0000
     25 H25         -0.7554 -17.3644  10.5183 H              1 <1>                0.0000
     26 H26          0.8145 -17.8465  10.2558 H              1 <1>                0.0000
@<TRIPOS>BOND
    1    1    2 1     
    2    1   11 1     
    3    1   12 1     
    4    1   13 1     
    5    2    3 1     
    6    2   14 1     
    7    2   15 1     
    8    3    4 1     
    9    3    8 1     
   10    3    5 1     
   11    5    6 1     
   12    5   16 1     
   13    5   17 1     
   14    6    7 1     
   15    6   18 1     
   16    6   19 1     
   17    7    8 1     
   18    7   20 1     
   19    7   21 1     
   20    8    9 1     
   21    8   22 1     
   22    9   10 1     
   23    9   23 1     
   24    9   24 1     
   25   10   25 1     
   26   10   26 1     
@<TRIPOS>SUBSTRUCTURE
      1 ****           1
@<TRIPOS>SET
DONOR_HYDROGENS      STATIC     ATOMS    <user>   **** ""
3 4 25 26
ATOM$RED        STATIC     ATOMS    COLORGROUP SYSTEM
3 4 25 26
@<TRIPOS>COMMENT
> <Gold.Version>
2022.2.0

> <Gold.Id.Protein>
3pbl|protein|mol2

> <Gold.Protein.RotatedTorsions>
[ 1303 1298 1297 1294 ] final   -1.47 input  179.99 | X-H torsion
[ 2461 2456 2455 2452 ] final   25.05 input   30.03 | X-H torsion
[ 2515 2510 2509 2506 ] final   -3.95 input  -89.99 | X-H torsion
[ 3721 3712 3711 3710 ] final   38.24 input -179.91 | X-H torsion
[ 3841 3832 3831 3830 ] final  160.34 input -179.91 | X-H torsion
[ 3767 3762 3761 3758 ] final  163.59 input  -89.99 | X-H torsion
[ 2472 2467 2466 2463 ] final  152.01 input  -89.97 | X-H torsion

> <Gold.Protein.ActiveResidues>
 VAL82   VAL86   LEU89   PHE106  VAL107  ASP110  VAL111  MET112  CYS114  THR115 
 CYS181  SER182  ILE183  PHE188  VAL189  ILE190  SER192  SER193  SER196  TRP342 
 PHE345  PHE346  HIS349  VAL350  TYR365  THR369  GLY372  TYR373 

> <Gold.Protein.RotatedAtoms>
    3.3789   -9.8533    4.0348 H   0  0  0  0  0  0  0  0  0  0  0  0  # atno 1303 bound_to 1298
    1.4381   -7.9168    7.0980 H   0  0  0  0  0  0  0  0  0  0  0  0  # atno 2461 bound_to 2456
   -5.5043   -5.2577    8.6115 H   0  0  0  0  0  0  0  0  0  0  0  0  # atno 2472 bound_to 2467
    2.5674   -7.6720    4.5671 H   0  0  0  0  0  0  0  0  0  0  0  0  # atno 2515 bound_to 2510
   -2.5019  -18.0180   13.6785 H   0  0  0  0  0  0  0  0  0  0  0  0  # atno 3721 bound_to 3712
   -3.9738  -22.7356   11.4369 H   0  0  0  0  0  0  0  0  0  0  0  0  # atno 3767 bound_to 3762
    3.0888  -20.2826    8.5385 H   0  0  0  0  0  0  0  0  0  0  0  0  # atno 3841 bound_to 3832
    4.2534   -8.4762    4.1075 LP  0  0  0  0  0  0  0  0  0  0  0  0  # atno 4297 bound_to 1298
    4.7302   -9.7917    4.9494 LP  0  0  0  0  0  0  0  0  0  0  0  0  # atno 4298 bound_to 1298
    0.3748   -8.9596    7.7685 LP  0  0  0  0  0  0  0  0  0  0  0  0  # atno 4299 bound_to 2456
    1.9249   -8.9315    8.2815 LP  0  0  0  0  0  0  0  0  0  0  0  0  # atno 4300 bound_to 2456
    2.6940   -9.2235    5.0596 LP  0  0  0  0  0  0  0  0  0  0  0  0  # atno 4301 bound_to 2510
    2.0352   -8.1039    6.0489 LP  0  0  0  0  0  0  0  0  0  0  0  0  # atno 4302 bound_to 2510
   -3.1653  -17.1091   14.8237 LP  0  0  0  0  0  0  0  0  0  0  0  0  # atno 4306 bound_to 3712
   -3.4739  -16.8151   13.2473 LP  0  0  0  0  0  0  0  0  0  0  0  0  # atno 4307 bound_to 3712
    2.0766  -21.0374    9.5294 LP  0  0  0  0  0  0  0  0  0  0  0  0  # atno 4314 bound_to 3832
    1.5847  -19.7384    8.6709 LP  0  0  0  0  0  0  0  0  0  0  0  0  # atno 4315 bound_to 3832
   -4.7983  -23.1776   10.0984 LP  0  0  0  0  0  0  0  0  0  0  0  0  # atno 4318 bound_to 3762
   -5.3549  -21.9619   11.0360 LP  0  0  0  0  0  0  0  0  0  0  0  0  # atno 4319 bound_to 3762
   -4.1961   -4.8015    7.7473 LP  0  0  0  0  0  0  0  0  0  0  0  0  # atno 4320 bound_to 2467
   -4.0167   -5.3343    9.2804 LP  0  0  0  0  0  0  0  0  0  0  0  0  # atno 4321 bound_to 2467

> <Gold.Score>
     Score     S(PLP)   S(hbond)     S(cho)   S(metal)  DE(clash)   DE(tors)     intcor
     33.13     -24.43       3.00       0.00       0.00       0.00       0.15       0.00

> <Gold.PLP.Fitness>
33.1302

> <Gold.PLP.PLP>
-24.4346

> <Gold.PLP.part.hbond>
-2.0000

> <Gold.PLP.part.metal>
0.0000

> <Gold.PLP.part.buried>
-3.3350

> <Gold.PLP.part.nonpolar>
-19.7047

> <Gold.PLP.part.repulsive>
0.0000

> <Gold.PLP.ligand.clash>
0.0000

> <Gold.PLP.ligand.torsion>
0.1530

> <Gold.PLP.Chemscore.Hbond>
3.0000

> <Gold.PLP.Chemscore.CHOScore>
0.0000

> <Gold.PLP.Chemscore.Metal>
0.0000

> <Gold.Chemscore.Hbonds>
donor molecule, donor type, donor heavy atom, donor atom, acceptor molecule, acceptor atom, score
      L1  H     3     4       P1  1227  2.00
      L1  H    10    26       P1  1227  1.00

> <Gold.PLP.Chemscore.Internal.Correction>
0.0015

