#       Name:                amine_i003
#       Creating user name   fsindt
#       Creation time:       Fri Aug 11 18:08:16 2023


#       File generated by GOLD software.
#

@<TRIPOS>MOLECULE
amine_i003|amine|mol2|3|dock6
    26    26     1
SMALL
NO_CHARGES


@<TRIPOS>ATOM
      1 C1          -0.6989 -18.3154   9.7425 C.3            1 <1>                0.0000
      2 C2          -0.6244 -17.9856  11.2346 C.3            1 <1>                0.0000
      3 N3           0.5429 -17.1309  11.4895 N.4            1 <1>                0.0000
      4 H4           1.3190 -17.4366  10.9218 H              1 <1>                0.0000
      5 C5           0.2119 -15.7269  11.1652 C.3            1 <1>                0.0000
      6 C6          -0.2017 -15.0954  12.5178 C.3            1 <1>                0.0000
      7 C7           0.7801 -15.7871  13.4999 C.3            1 <1>                0.0000
      8 C8           0.9112 -17.2061  12.9152 C.3            1 <1>                0.0000
      9 C9           2.3551 -17.6936  13.0508 C.3            1 <1>                0.0000
     10 N10          3.2462 -16.8002  12.2984 N.3            1 <1>                0.0000
     11 H11         -0.7927 -17.3923   9.1706 H              1 <1>                0.0000
     12 H12          0.2079 -18.8395   9.4405 H              1 <1>                0.0000
     13 H13         -1.5651 -18.9496   9.5534 H              1 <1>                0.0000
     14 H14         -1.5312 -17.4615  11.5367 H              1 <1>                0.0000
     15 H15         -0.5306 -18.9087  11.8067 H              1 <1>                0.0000
     16 H16          1.0845 -15.2155  10.7587 H              1 <1>                0.0000
     17 H17         -0.6166 -15.6861  10.4581 H              1 <1>                0.0000
     18 H18         -0.0485 -14.0163  12.5080 H              1 <1>                0.0000
     19 H19         -1.2354 -15.3392  12.7627 H              1 <1>                0.0000
     20 H20          1.7446 -15.2794  13.5022 H              1 <1>                0.0000
     21 H21          0.3593 -15.8220  14.5049 H              1 <1>                0.0000
     22 H22          0.2375 -17.8858  13.4370 H              1 <1>                0.0000
     23 H23          2.6420 -17.6915  14.1024 H              1 <1>                0.0000
     24 H24          2.4357 -18.7055  12.6541 H              1 <1>                0.0000
     25 H25          4.2097 -16.9465  12.5599 H              1 <1>                0.0000
     26 H26          3.1196 -16.9168  11.3043 H              1 <1>                0.0000
@<TRIPOS>BOND
    1    1    2 1     
    2    1   11 1     
    3    1   12 1     
    4    1   13 1     
    5    2    3 1     
    6    2   14 1     
    7    2   15 1     
    8    3    4 1     
    9    3    8 1     
   10    3    5 1     
   11    5    6 1     
   12    5   16 1     
   13    5   17 1     
   14    6    7 1     
   15    6   18 1     
   16    6   19 1     
   17    7    8 1     
   18    7   20 1     
   19    7   21 1     
   20    8    9 1     
   21    8   22 1     
   22    9   10 1     
   23    9   23 1     
   24    9   24 1     
   25   10   25 1     
   26   10   26 1     
@<TRIPOS>SUBSTRUCTURE
      1 ****           1
@<TRIPOS>SET
DONOR_HYDROGENS      STATIC     ATOMS    <user>   **** ""
3 4 25 26
ATOM$RED        STATIC     ATOMS    COLORGROUP SYSTEM
3 4 25 26
@<TRIPOS>COMMENT
> <Gold.Version>
2022.2.0

> <Gold.Id.Protein>
3pbl|protein|mol2

> <Gold.Protein.RotatedTorsions>
[ 1303 1298 1297 1294 ] final  145.76 input  179.99 | X-H torsion
[ 2461 2456 2455 2452 ] final   17.93 input   30.03 | X-H torsion
[ 2515 2510 2509 2506 ] final -116.15 input  -89.99 | X-H torsion
[ 3721 3712 3711 3710 ] final -124.50 input -179.91 | X-H torsion
[ 3841 3832 3831 3830 ] final  149.72 input -179.91 | X-H torsion
[ 3767 3762 3761 3758 ] final   48.38 input  -89.99 | X-H torsion
[ 2472 2467 2466 2463 ] final   10.43 input  -89.97 | X-H torsion

> <Gold.Protein.ActiveResidues>
 VAL82   VAL86   LEU89   PHE106  VAL107  ASP110  VAL111  MET112  CYS114  THR115 
 CYS181  SER182  ILE183  PHE188  VAL189  ILE190  SER192  SER193  SER196  TRP342 
 PHE345  PHE346  HIS349  VAL350  TYR365  THR369  GLY372  TYR373 

> <Gold.Protein.RotatedAtoms>
    4.8931   -9.3815    4.9041 H   0  0  0  0  0  0  0  0  0  0  0  0  # atno 1303 bound_to 1298
    1.3257   -7.9241    7.0660 H   0  0  0  0  0  0  0  0  0  0  0  0  # atno 2461 bound_to 2456
   -3.9064   -4.8417    7.9450 H   0  0  0  0  0  0  0  0  0  0  0  0  # atno 2472 bound_to 2467
    2.7334   -9.1810    4.9450 H   0  0  0  0  0  0  0  0  0  0  0  0  # atno 2515 bound_to 2510
   -3.2401  -16.6256   14.3489 H   0  0  0  0  0  0  0  0  0  0  0  0  # atno 3721 bound_to 3712
   -4.7310  -23.2127   10.1199 H   0  0  0  0  0  0  0  0  0  0  0  0  # atno 3767 bound_to 3762
    3.1242  -20.4093    8.6301 H   0  0  0  0  0  0  0  0  0  0  0  0  # atno 3841 bound_to 3832
    3.5871  -10.1478    4.2932 LP  0  0  0  0  0  0  0  0  0  0  0  0  # atno 4297 bound_to 1298
    3.8817   -8.5920    3.8942 LP  0  0  0  0  0  0  0  0  0  0  0  0  # atno 4298 bound_to 1298
    0.4164   -9.0294    7.8527 LP  0  0  0  0  0  0  0  0  0  0  0  0  # atno 4299 bound_to 2456
    1.9957   -8.8544    8.2292 LP  0  0  0  0  0  0  0  0  0  0  0  0  # atno 4300 bound_to 2456
    2.0488   -8.2276    6.0799 LP  0  0  0  0  0  0  0  0  0  0  0  0  # atno 4301 bound_to 2510
    2.5144   -7.5901    4.6504 LP  0  0  0  0  0  0  0  0  0  0  0  0  # atno 4302 bound_to 2510
   -3.1534  -17.4197   12.9562 LP  0  0  0  0  0  0  0  0  0  0  0  0  # atno 4306 bound_to 3712
   -2.6335  -18.1121   14.3407 LP  0  0  0  0  0  0  0  0  0  0  0  0  # atno 4307 bound_to 3712
    1.9231  -20.9507    9.5468 LP  0  0  0  0  0  0  0  0  0  0  0  0  # atno 4314 bound_to 3832
    1.6974  -19.6788    8.5478 LP  0  0  0  0  0  0  0  0  0  0  0  0  # atno 4315 bound_to 3832
   -5.3926  -21.9856   10.9705 LP  0  0  0  0  0  0  0  0  0  0  0  0  # atno 4318 bound_to 3762
   -4.0038  -22.6770   11.4804 LP  0  0  0  0  0  0  0  0  0  0  0  0  # atno 4319 bound_to 3762
   -4.3333   -5.4168    9.4125 LP  0  0  0  0  0  0  0  0  0  0  0  0  # atno 4320 bound_to 2467
   -5.4771   -5.1350    8.2815 LP  0  0  0  0  0  0  0  0  0  0  0  0  # atno 4321 bound_to 2467

> <Gold.Score>
     Score     S(PLP)   S(hbond)     S(cho)   S(metal)  DE(clash)   DE(tors)     intcor
     36.08     -27.50       3.00       0.00       0.00       0.00       0.21       0.00

> <Gold.PLP.Fitness>
36.0847

> <Gold.PLP.PLP>
-27.4996

> <Gold.PLP.part.hbond>
-2.0000

> <Gold.PLP.part.metal>
0.0000

> <Gold.PLP.part.buried>
-3.5731

> <Gold.PLP.part.nonpolar>
-22.7056

> <Gold.PLP.part.repulsive>
0.0000

> <Gold.PLP.ligand.clash>
0.0000

> <Gold.PLP.ligand.torsion>
0.2082

> <Gold.PLP.Chemscore.Hbond>
3.0000

> <Gold.PLP.Chemscore.CHOScore>
0.0000

> <Gold.PLP.Chemscore.Metal>
0.0000

> <Gold.Chemscore.Hbonds>
donor molecule, donor type, donor heavy atom, donor atom, acceptor molecule, acceptor atom, score
      L1  H     3     4       P1  1227  2.00
      L1  H    10    26       P1  1227  1.00

> <Gold.PLP.Chemscore.Internal.Correction>
0.0015

