#       Name:                amine_i003
#       Creating user name   fsindt
#       Creation time:       Fri Aug 11 18:08:17 2023


#       File generated by GOLD software.
#

@<TRIPOS>MOLECULE
amine_i003|amine|mol2|3|dock9
    26    26     1
SMALL
NO_CHARGES


@<TRIPOS>ATOM
      1 C1          -0.3934 -14.8182  12.5579 C.3            1 <1>                0.0000
      2 C2           0.5360 -15.3546  11.4674 C.3            1 <1>                0.0000
      3 N3           1.0457 -16.6742  11.8638 N.4            1 <1>                0.0000
      4 H4           1.5334 -17.0975  11.0887 H              1 <1>                0.0000
      5 C5           1.9668 -16.5276  13.0110 C.3            1 <1>                0.0000
      6 C6           1.0898 -16.7957  14.2594 C.3            1 <1>                0.0000
      7 C7           0.1527 -17.9215  13.7481 C.3            1 <1>                0.0000
      8 C8          -0.0772 -17.5370  12.2744 C.3            1 <1>                0.0000
      9 C9          -0.1052 -18.7965  11.4062 C.3            1 <1>                0.0000
     10 N10          1.2705 -19.2100  11.0988 N.3            1 <1>                0.0000
     11 H11         -1.2291 -15.5048  12.6932 H              1 <1>                0.0000
     12 H12          0.1583 -14.7283  13.4936 H              1 <1>                0.0000
     13 H13         -0.7716 -13.8391  12.2637 H              1 <1>                0.0000
     14 H14         -0.0157 -15.4445  10.5316 H              1 <1>                0.0000
     15 H15          1.3717 -14.6680  11.3320 H              1 <1>                0.0000
     16 H16          2.7711 -17.2606  12.9477 H              1 <1>                0.0000
     17 H17          2.3745 -15.5173  13.0434 H              1 <1>                0.0000
     18 H18          1.6967 -17.1426  15.0956 H              1 <1>                0.0000
     19 H19          0.5200 -15.9082  14.5342 H              1 <1>                0.0000
     20 H20          0.6412 -18.8930  13.8224 H              1 <1>                0.0000
     21 H21         -0.7884 -17.9190  14.2982 H              1 <1>                0.0000
     22 H22         -1.0174 -16.9945  12.1751 H              1 <1>                0.0000
     23 H23         -0.6136 -19.5970  11.9436 H              1 <1>                0.0000
     24 H24         -0.6373 -18.5865  10.4784 H              1 <1>                0.0000
     25 H25          1.8418 -18.4141  10.8573 H              1 <1>                0.0000
     26 H26          1.6737 -19.7246  11.8673 H              1 <1>                0.0000
@<TRIPOS>BOND
    1    1    2 1     
    2    1   11 1     
    3    1   12 1     
    4    1   13 1     
    5    2    3 1     
    6    2   14 1     
    7    2   15 1     
    8    3    4 1     
    9    3    8 1     
   10    3    5 1     
   11    5    6 1     
   12    5   16 1     
   13    5   17 1     
   14    6    7 1     
   15    6   18 1     
   16    6   19 1     
   17    7    8 1     
   18    7   20 1     
   19    7   21 1     
   20    8    9 1     
   21    8   22 1     
   22    9   10 1     
   23    9   23 1     
   24    9   24 1     
   25   10   25 1     
   26   10   26 1     
@<TRIPOS>SUBSTRUCTURE
      1 ****           1
@<TRIPOS>SET
DONOR_HYDROGENS      STATIC     ATOMS    <user>   **** ""
3 4 25 26
ATOM$RED        STATIC     ATOMS    COLORGROUP SYSTEM
3 4 25 26
@<TRIPOS>COMMENT
> <Gold.Version>
2022.2.0

> <Gold.Id.Protein>
3pbl|protein|mol2

> <Gold.Protein.RotatedTorsions>
[ 1303 1298 1297 1294 ] final  -49.12 input  179.99 | X-H torsion
[ 2461 2456 2455 2452 ] final    2.96 input   30.03 | X-H torsion
[ 2515 2510 2509 2506 ] final -162.82 input  -89.99 | X-H torsion
[ 3721 3712 3711 3710 ] final   85.42 input -179.91 | X-H torsion
[ 3841 3832 3831 3830 ] final   -6.36 input -179.91 | X-H torsion
[ 3767 3762 3761 3758 ] final  -85.94 input  -89.99 | X-H torsion
[ 2472 2467 2466 2463 ] final  164.96 input  -89.97 | X-H torsion

> <Gold.Protein.ActiveResidues>
 VAL82   VAL86   LEU89   PHE106  VAL107  ASP110  VAL111  MET112  CYS114  THR115 
 CYS181  SER182  ILE183  PHE188  VAL189  ILE190  SER192  SER193  SER196  TRP342 
 PHE345  PHE346  HIS349  VAL350  TYR365  THR369  GLY372  TYR373 

> <Gold.Protein.RotatedAtoms>
    3.4175   -9.1355    3.7831 H   0  0  0  0  0  0  0  0  0  0  0  0  # atno 1303 bound_to 1298
    1.0874   -7.9733    7.0319 H   0  0  0  0  0  0  0  0  0  0  0  0  # atno 2461 bound_to 2456
   -5.4574   -5.3235    8.8082 H   0  0  0  0  0  0  0  0  0  0  0  0  # atno 2472 bound_to 2467
    2.4434   -9.1825    5.6331 H   0  0  0  0  0  0  0  0  0  0  0  0  # atno 2515 bound_to 2510
   -2.7509  -17.6679   13.1344 H   0  0  0  0  0  0  0  0  0  0  0  0  # atno 3721 bound_to 3712
   -5.2671  -21.9283   11.1610 H   0  0  0  0  0  0  0  0  0  0  0  0  # atno 3767 bound_to 3762
    1.6857  -20.4131    9.5242 H   0  0  0  0  0  0  0  0  0  0  0  0  # atno 3841 bound_to 3832
    4.7867   -8.7429    4.5816 LP  0  0  0  0  0  0  0  0  0  0  0  0  # atno 4297 bound_to 1298
    4.1582  -10.2431    4.7270 LP  0  0  0  0  0  0  0  0  0  0  0  0  # atno 4298 bound_to 1298
    0.5445   -9.1537    8.0215 LP  0  0  0  0  0  0  0  0  0  0  0  0  # atno 4299 bound_to 2456
    2.1059   -8.6811    8.0945 LP  0  0  0  0  0  0  0  0  0  0  0  0  # atno 4300 bound_to 2456
    2.0772   -7.5924    5.6879 LP  0  0  0  0  0  0  0  0  0  0  0  0  # atno 4301 bound_to 2510
    2.7761   -8.2239    4.3540 LP  0  0  0  0  0  0  0  0  0  0  0  0  # atno 4302 bound_to 2510
   -2.7927  -17.7730   14.7359 LP  0  0  0  0  0  0  0  0  0  0  0  0  # atno 4306 bound_to 3712
   -3.5590  -16.5554   13.9633 LP  0  0  0  0  0  0  0  0  0  0  0  0  # atno 4307 bound_to 3712
    2.2407  -19.6774    8.2101 LP  0  0  0  0  0  0  0  0  0  0  0  0  # atno 4314 bound_to 3832
    3.0414  -20.9477    8.8517 LP  0  0  0  0  0  0  0  0  0  0  0  0  # atno 4315 bound_to 3832
   -3.9313  -22.8506   11.3397 LP  0  0  0  0  0  0  0  0  0  0  0  0  # atno 4318 bound_to 3762
   -4.9292  -23.0959   10.0705 LP  0  0  0  0  0  0  0  0  0  0  0  0  # atno 4319 bound_to 3762
   -4.3982   -4.7999    7.6811 LP  0  0  0  0  0  0  0  0  0  0  0  0  # atno 4320 bound_to 2467
   -3.8615   -5.2702    9.1499 LP  0  0  0  0  0  0  0  0  0  0  0  0  # atno 4321 bound_to 2467

> <Gold.Score>
     Score     S(PLP)   S(hbond)     S(cho)   S(metal)  DE(clash)   DE(tors)     intcor
     37.53     -26.32       3.93       0.00       0.00       0.00       0.29       0.00

> <Gold.PLP.Fitness>
37.5339

> <Gold.PLP.PLP>
-26.3198

> <Gold.PLP.part.hbond>
-3.0000

> <Gold.PLP.part.metal>
0.0000

> <Gold.PLP.part.buried>
-3.3158

> <Gold.PLP.part.nonpolar>
-19.9029

> <Gold.PLP.part.repulsive>
0.0000

> <Gold.PLP.ligand.clash>
0.0000

> <Gold.PLP.ligand.torsion>
0.2857

> <Gold.PLP.Chemscore.Hbond>
3.9280

> <Gold.PLP.Chemscore.CHOScore>
0.0000

> <Gold.PLP.Chemscore.Metal>
0.0000

> <Gold.Chemscore.Hbonds>
donor molecule, donor type, donor heavy atom, donor atom, acceptor molecule, acceptor atom, score
      L1  H     3     4       P1  1227  2.00
      L1  H    10    25       P1  1227  0.93
      P1  H  3832  3841       L1    10  1.00

> <Gold.PLP.Chemscore.Internal.Correction>
0.0015

