#       Name:                amine_i003
#       Creating user name   fsindt
#       Creation time:       Fri Aug 11 18:08:24 2023


#       File generated by GOLD software.
#

@<TRIPOS>MOLECULE
amine_i003|amine|mol2|3|dock20
    26    26     1
SMALL
NO_CHARGES


@<TRIPOS>ATOM
      1 C1           1.8804 -16.5460  13.2149 C.3            1 <1>                0.0000
      2 C2           2.2657 -18.0265  13.2030 C.3            1 <1>                0.0000
      3 N3           1.6171 -18.6922  12.0653 N.4            1 <1>                0.0000
      4 H4           1.8645 -18.2200  11.2086 H              1 <1>                0.0000
      5 C5           2.0535 -20.1032  11.9996 C.3            1 <1>                0.0000
      6 C6           0.9469 -20.8945  12.7403 C.3            1 <1>                0.0000
      7 C7          -0.3299 -20.1250  12.3103 C.3            1 <1>                0.0000
      8 C8           0.1536 -18.6641  12.2424 C.3            1 <1>                0.0000
      9 C9          -0.4973 -17.9552  11.0531 C.3            1 <1>                0.0000
     10 N10         -0.0957 -18.6208   9.8066 N.3            1 <1>                0.0000
     11 H11          2.2067 -16.0781  12.2861 H              1 <1>                0.0000
     12 H12          0.7984 -16.4528  13.3082 H              1 <1>                0.0000
     13 H13          2.3617 -16.0521  14.0592 H              1 <1>                0.0000
     14 H14          3.3478 -18.1197  13.1097 H              1 <1>                0.0000
     15 H15          1.9395 -18.4945  14.1318 H              1 <1>                0.0000
     16 H16          2.1244 -20.4305  10.9622 H              1 <1>                0.0000
     17 H17          3.0116 -20.2279  12.5041 H              1 <1>                0.0000
     18 H18          0.9123 -21.9293  12.3998 H              1 <1>                0.0000
     19 H19          1.0875 -20.8449  13.8200 H              1 <1>                0.0000
     20 H20         -0.6735 -20.4642  11.3331 H              1 <1>                0.0000
     21 H21         -1.1165 -20.2362  13.0566 H              1 <1>                0.0000
     22 H22         -0.0981 -18.1469  13.1684 H              1 <1>                0.0000
     23 H23         -1.5818 -17.9972  11.1542 H              1 <1>                0.0000
     24 H24         -0.1746 -16.9144  11.0294 H              1 <1>                0.0000
     25 H25          0.8738 -18.4378   9.5951 H              1 <1>                0.0000
     26 H26         -0.2747 -19.6127   9.8525 H              1 <1>                0.0000
@<TRIPOS>BOND
    1    1    2 1     
    2    1   11 1     
    3    1   12 1     
    4    1   13 1     
    5    2    3 1     
    6    2   14 1     
    7    2   15 1     
    8    3    4 1     
    9    3    8 1     
   10    3    5 1     
   11    5    6 1     
   12    5   16 1     
   13    5   17 1     
   14    6    7 1     
   15    6   18 1     
   16    6   19 1     
   17    7    8 1     
   18    7   20 1     
   19    7   21 1     
   20    8    9 1     
   21    8   22 1     
   22    9   10 1     
   23    9   23 1     
   24    9   24 1     
   25   10   25 1     
   26   10   26 1     
@<TRIPOS>SUBSTRUCTURE
      1 ****           1
@<TRIPOS>SET
DONOR_HYDROGENS      STATIC     ATOMS    <user>   **** ""
3 4 25 26
ATOM$RED        STATIC     ATOMS    COLORGROUP SYSTEM
3 4 25 26
@<TRIPOS>COMMENT
> <Gold.Version>
2022.2.0

> <Gold.Id.Protein>
3pbl|protein|mol2

> <Gold.Protein.RotatedTorsions>
[ 1303 1298 1297 1294 ] final  -33.36 input  179.99 | X-H torsion
[ 2461 2456 2455 2452 ] final  144.59 input   30.03 | X-H torsion
[ 2515 2510 2509 2506 ] final   69.57 input  -89.99 | X-H torsion
[ 3721 3712 3711 3710 ] final -109.08 input -179.91 | X-H torsion
[ 3841 3832 3831 3830 ] final    1.85 input -179.91 | X-H torsion
[ 3767 3762 3761 3758 ] final   12.77 input  -89.99 | X-H torsion
[ 2472 2467 2466 2463 ] final  -41.14 input  -89.97 | X-H torsion

> <Gold.Protein.ActiveResidues>
 VAL82   VAL86   LEU89   PHE106  VAL107  ASP110  VAL111  MET112  CYS114  THR115 
 CYS181  SER182  ILE183  PHE188  VAL189  ILE190  SER192  SER193  SER196  TRP342 
 PHE345  PHE346  HIS349  VAL350  TYR365  THR369  GLY372  TYR373 

> <Gold.Protein.RotatedAtoms>
    3.3454   -9.3797    3.8278 H   0  0  0  0  0  0  0  0  0  0  0  0  # atno 1303 bound_to 1298
    1.9300   -8.9268    8.2786 H   0  0  0  0  0  0  0  0  0  0  0  0  # atno 2461 bound_to 2456
   -3.6411   -5.0789    8.6840 H   0  0  0  0  0  0  0  0  0  0  0  0  # atno 2472 bound_to 2467
    2.1061   -7.5259    5.5860 H   0  0  0  0  0  0  0  0  0  0  0  0  # atno 2515 bound_to 2510
   -3.1547  -16.7468   14.5278 H   0  0  0  0  0  0  0  0  0  0  0  0  # atno 3721 bound_to 3712
   -5.1938  -22.8703   10.0862 H   0  0  0  0  0  0  0  0  0  0  0  0  # atno 3767 bound_to 3762
    1.7530  -20.5077    9.5672 H   0  0  0  0  0  0  0  0  0  0  0  0  # atno 3841 bound_to 3832
    4.6455   -8.5929    4.4253 LP  0  0  0  0  0  0  0  0  0  0  0  0  # atno 4297 bound_to 1298
    4.3715  -10.1488    4.8387 LP  0  0  0  0  0  0  0  0  0  0  0  0  # atno 4298 bound_to 1298
    1.4309   -7.9172    7.0958 LP  0  0  0  0  0  0  0  0  0  0  0  0  # atno 4299 bound_to 2456
    0.3771   -8.9643    7.7739 LP  0  0  0  0  0  0  0  0  0  0  0  0  # atno 4300 bound_to 2456
    2.8011   -8.3465    4.3575 LP  0  0  0  0  0  0  0  0  0  0  0  0  # atno 4301 bound_to 2510
    2.3897   -9.1271    5.7316 LP  0  0  0  0  0  0  0  0  0  0  0  0  # atno 4302 bound_to 2510
   -3.2775  -17.1976   12.9917 LP  0  0  0  0  0  0  0  0  0  0  0  0  # atno 4306 bound_to 3712
   -2.6080  -18.1942   14.0987 LP  0  0  0  0  0  0  0  0  0  0  0  0  # atno 4307 bound_to 3712
    2.1169  -19.6487    8.2611 LP  0  0  0  0  0  0  0  0  0  0  0  0  # atno 4314 bound_to 3832
    3.0875  -20.8671    8.7510 LP  0  0  0  0  0  0  0  0  0  0  0  0  # atno 4315 bound_to 3832
   -5.0202  -21.9250   11.4065 LP  0  0  0  0  0  0  0  0  0  0  0  0  # atno 4318 bound_to 3762
   -3.9135  -23.0799   11.0780 LP  0  0  0  0  0  0  0  0  0  0  0  0  # atno 4319 bound_to 3762
   -5.1341   -5.4416    9.2369 LP  0  0  0  0  0  0  0  0  0  0  0  0  # atno 4320 bound_to 2467
   -4.9416   -4.8731    7.7182 LP  0  0  0  0  0  0  0  0  0  0  0  0  # atno 4321 bound_to 2467

> <Gold.Score>
     Score     S(PLP)   S(hbond)     S(cho)   S(metal)  DE(clash)   DE(tors)     intcor
     33.40     -24.43       3.00       0.00       0.00       0.00       0.01       0.00

> <Gold.PLP.Fitness>
33.4032

> <Gold.PLP.PLP>
-24.4277

> <Gold.PLP.part.hbond>
-2.7203

> <Gold.PLP.part.metal>
0.0000

> <Gold.PLP.part.buried>
-3.0962

> <Gold.PLP.part.nonpolar>
-19.0310

> <Gold.PLP.part.repulsive>
0.0000

> <Gold.PLP.ligand.clash>
0.0000

> <Gold.PLP.ligand.torsion>
0.0130

> <Gold.PLP.Chemscore.Hbond>
3.0000

> <Gold.PLP.Chemscore.CHOScore>
0.0000

> <Gold.PLP.Chemscore.Metal>
0.0000

> <Gold.Chemscore.Hbonds>
donor molecule, donor type, donor heavy atom, donor atom, acceptor molecule, acceptor atom, score
      L1  H     3     4       P1  1227  2.00
      L1  H    10    25       P1  1227  1.00

> <Gold.PLP.Chemscore.Internal.Correction>
0.0015

