#       Name:                amine_i003
#       Creating user name   fsindt
#       Creation time:       Fri Aug 11 18:08:16 2023


#       File generated by GOLD software.
#

@<TRIPOS>MOLECULE
amine_i003|amine|mol2|3|dock7
    26    26     1
SMALL
NO_CHARGES


@<TRIPOS>ATOM
      1 C1          -0.6999 -17.4356   8.6931 C.3            1 <1>                0.0000
      2 C2          -0.3353 -16.0523   8.1508 C.3            1 <1>                0.0000
      3 N3           0.6941 -15.4467   9.0063 N.4            1 <1>                0.0000
      4 H4           1.3209 -16.1622   9.3429 H              1 <1>                0.0000
      5 C5           1.4551 -14.4419   8.2336 C.3            1 <1>                0.0000
      6 C6           0.7751 -13.0901   8.5647 C.3            1 <1>                0.0000
      7 C7           0.4211 -13.2763  10.0637 C.3            1 <1>                0.0000
      8 C8           0.0543 -14.7698  10.1492 C.3            1 <1>                0.0000
      9 C9           0.5792 -15.3604  11.4594 C.3            1 <1>                0.0000
     10 N10          0.3988 -16.8183  11.4462 N.3            1 <1>                0.0000
     11 H11          0.1870 -18.0692   8.6982 H              1 <1>                0.0000
     12 H12         -1.0829 -17.3383   9.7089 H              1 <1>                0.0000
     13 H13         -1.4638 -17.8849   8.0583 H              1 <1>                0.0000
     14 H14          0.0478 -16.1495   7.1349 H              1 <1>                0.0000
     15 H15         -1.2222 -15.4186   8.1456 H              1 <1>                0.0000
     16 H16          2.4980 -14.4297   8.5506 H              1 <1>                0.0000
     17 H17          1.3845 -14.6509   7.1662 H              1 <1>                0.0000
     18 H18          1.4683 -12.2603   8.4274 H              1 <1>                0.0000
     19 H19         -0.1245 -12.9485   7.9657 H              1 <1>                0.0000
     20 H20          1.2821 -13.0530  10.6936 H              1 <1>                0.0000
     21 H21         -0.4307 -12.6541  10.3386 H              1 <1>                0.0000
     22 H22         -1.0276 -14.8897  10.0931 H              1 <1>                0.0000
     23 H23          1.6386 -15.1264  11.5647 H              1 <1>                0.0000
     24 H24          0.0277 -14.9337  12.2970 H              1 <1>                0.0000
     25 H25         -0.5574 -17.0624  11.2358 H              1 <1>                0.0000
     26 H26          1.0349 -17.2555  10.7965 H              1 <1>                0.0000
@<TRIPOS>BOND
    1    1    2 1     
    2    1   11 1     
    3    1   12 1     
    4    1   13 1     
    5    2    3 1     
    6    2   14 1     
    7    2   15 1     
    8    3    4 1     
    9    3    8 1     
   10    3    5 1     
   11    5    6 1     
   12    5   16 1     
   13    5   17 1     
   14    6    7 1     
   15    6   18 1     
   16    6   19 1     
   17    7    8 1     
   18    7   20 1     
   19    7   21 1     
   20    8    9 1     
   21    8   22 1     
   22    9   10 1     
   23    9   23 1     
   24    9   24 1     
   25   10   25 1     
   26   10   26 1     
@<TRIPOS>SUBSTRUCTURE
      1 ****           1
@<TRIPOS>SET
DONOR_HYDROGENS      STATIC     ATOMS    <user>   **** ""
3 4 25 26
ATOM$RED        STATIC     ATOMS    COLORGROUP SYSTEM
3 4 25 26
@<TRIPOS>COMMENT
> <Gold.Version>
2022.2.0

> <Gold.Id.Protein>
3pbl|protein|mol2

> <Gold.Protein.RotatedTorsions>
[ 1303 1298 1297 1294 ] final   13.98 input  179.99 | X-H torsion
[ 2461 2456 2455 2452 ] final  175.60 input   30.03 | X-H torsion
[ 2515 2510 2509 2506 ] final    3.32 input  -89.99 | X-H torsion
[ 3721 3712 3711 3710 ] final -161.16 input -179.91 | X-H torsion
[ 3841 3832 3831 3830 ] final  150.53 input -179.91 | X-H torsion
[ 3767 3762 3761 3758 ] final  -20.34 input  -89.99 | X-H torsion
[ 2472 2467 2466 2463 ] final -174.39 input  -89.97 | X-H torsion

> <Gold.Protein.ActiveResidues>
 VAL82   VAL86   LEU89   PHE106  VAL107  ASP110  VAL111  MET112  CYS114  THR115 
 CYS181  SER182  ILE183  PHE188  VAL189  ILE190  SER192  SER193  SER196  TRP342 
 PHE345  PHE346  HIS349  VAL350  TYR365  THR369  GLY372  TYR373 

> <Gold.Protein.RotatedAtoms>
    3.4790  -10.0382    4.1762 H   0  0  0  0  0  0  0  0  0  0  0  0  # atno 1303 bound_to 1298
    1.5187   -9.1920    8.4000 H   0  0  0  0  0  0  0  0  0  0  0  0  # atno 2461 bound_to 2456
   -5.2913   -5.4069    9.0904 H   0  0  0  0  0  0  0  0  0  0  0  0  # atno 2472 bound_to 2467
    2.5182   -7.5955    4.6446 H   0  0  0  0  0  0  0  0  0  0  0  0  # atno 2515 bound_to 2510
   -3.3384  -16.5361   13.8206 H   0  0  0  0  0  0  0  0  0  0  0  0  # atno 3721 bound_to 3712
   -5.4642  -22.4660   10.3151 H   0  0  0  0  0  0  0  0  0  0  0  0  # atno 3767 bound_to 3762
    3.1224  -20.3997    8.6226 H   0  0  0  0  0  0  0  0  0  0  0  0  # atno 3841 bound_to 3832
    4.0408   -8.5181    3.9760 LP  0  0  0  0  0  0  0  0  0  0  0  0  # atno 4297 bound_to 1298
    4.8427   -9.5648    4.9394 LP  0  0  0  0  0  0  0  0  0  0  0  0  # atno 4298 bound_to 1298
    1.8663   -8.0040    7.3345 LP  0  0  0  0  0  0  0  0  0  0  0  0  # atno 4299 bound_to 2456
    0.3529   -8.6123    7.4139 LP  0  0  0  0  0  0  0  0  0  0  0  0  # atno 4300 bound_to 2456
    2.7308   -9.1848    4.9526 LP  0  0  0  0  0  0  0  0  0  0  0  0  # atno 4301 bound_to 2510
    2.0477   -8.2191    6.0783 LP  0  0  0  0  0  0  0  0  0  0  0  0  # atno 4302 bound_to 2510
   -2.8563  -17.9092   13.1424 LP  0  0  0  0  0  0  0  0  0  0  0  0  # atno 4306 bound_to 3712
   -2.8172  -17.7258   14.7645 LP  0  0  0  0  0  0  0  0  0  0  0  0  # atno 4307 bound_to 3712
    1.9345  -20.9581    9.5463 LP  0  0  0  0  0  0  0  0  0  0  0  0  # atno 4314 bound_to 3832
    1.6880  -19.6825    8.5569 LP  0  0  0  0  0  0  0  0  0  0  0  0  # atno 4315 bound_to 3832
   -4.5657  -22.1047   11.6300 LP  0  0  0  0  0  0  0  0  0  0  0  0  # atno 4318 bound_to 3762
   -4.0977  -23.3043   10.6258 LP  0  0  0  0  0  0  0  0  0  0  0  0  # atno 4319 bound_to 3762
   -4.7343   -4.8319    7.6672 LP  0  0  0  0  0  0  0  0  0  0  0  0  # atno 4320 bound_to 2467
   -3.6915   -5.1548    8.8816 LP  0  0  0  0  0  0  0  0  0  0  0  0  # atno 4321 bound_to 2467

> <Gold.Score>
     Score     S(PLP)   S(hbond)     S(cho)   S(metal)  DE(clash)   DE(tors)     intcor
     35.60     -27.19       3.00       0.00       0.00       0.00       0.30       0.00

> <Gold.PLP.Fitness>
35.6006

> <Gold.PLP.PLP>
-27.1905

> <Gold.PLP.part.hbond>
-2.0000

> <Gold.PLP.part.metal>
0.0000

> <Gold.PLP.part.buried>
-2.8734

> <Gold.PLP.part.nonpolar>
-22.5690

> <Gold.PLP.part.repulsive>
0.0024

> <Gold.PLP.ligand.clash>
0.0000

> <Gold.PLP.ligand.torsion>
0.2957

> <Gold.PLP.Chemscore.Hbond>
3.0000

> <Gold.PLP.Chemscore.CHOScore>
0.0000

> <Gold.PLP.Chemscore.Metal>
0.0000

> <Gold.Chemscore.Hbonds>
donor molecule, donor type, donor heavy atom, donor atom, acceptor molecule, acceptor atom, score
      L1  H     3     4       P1  1227  2.00
      L1  H    10    26       P1  1227  1.00

> <Gold.PLP.Chemscore.Internal.Correction>
0.0015

