#       Name:                amine_i003
#       Creating user name   fsindt
#       Creation time:       Fri Aug 11 18:08:13 2023


#       File generated by GOLD software.
#

@<TRIPOS>MOLECULE
amine_i003|amine|mol2|3|dock1
    26    26     1
SMALL
NO_CHARGES


@<TRIPOS>ATOM
      1 C1          -0.4356 -18.2857   8.3994 C.3            1 <1>                0.0000
      2 C2          -0.6985 -16.8319   8.7970 C.3            1 <1>                0.0000
      3 N3           0.5203 -16.0389   8.5878 N.4            1 <1>                0.0000
      4 H4           1.2998 -16.4856   9.0469 H              1 <1>                0.0000
      5 C5           0.7956 -15.9225   7.1399 C.3            1 <1>                0.0000
      6 C6           0.1718 -14.5663   6.7263 C.3            1 <1>                0.0000
      7 C7           0.4755 -13.6895   7.9697 C.3            1 <1>                0.0000
      8 C8           0.3310 -14.6838   9.1372 C.3            1 <1>                0.0000
      9 C9           1.3988 -14.4018  10.1960 C.3            1 <1>                0.0000
     10 N10          1.4769 -15.5358  11.1267 N.3            1 <1>                0.0000
     11 H11         -0.1500 -18.3290   7.3485 H              1 <1>                0.0000
     12 H12          0.3704 -18.6898   9.0120 H              1 <1>                0.0000
     13 H13         -1.3400 -18.8741   8.5548 H              1 <1>                0.0000
     14 H14         -1.5045 -16.4277   8.1845 H              1 <1>                0.0000
     15 H15         -0.9842 -16.7885   9.8481 H              1 <1>                0.0000
     16 H16          1.8702 -15.9173   6.9572 H              1 <1>                0.0000
     17 H17          0.3214 -16.7398   6.5966 H              1 <1>                0.0000
     18 H18          0.6606 -14.1665   5.8378 H              1 <1>                0.0000
     19 H19         -0.9025 -14.6624   6.5692 H              1 <1>                0.0000
     20 H20          1.4895 -13.2927   7.9231 H              1 <1>                0.0000
     21 H21         -0.2517 -12.8824   8.0589 H              1 <1>                0.0000
     22 H22         -0.6625 -14.5973   9.5771 H              1 <1>                0.0000
     23 H23          2.3647 -14.2635   9.7102 H              1 <1>                0.0000
     24 H24          1.1357 -13.4982  10.7457 H              1 <1>                0.0000
     25 H25          0.5762 -15.7276  11.5393 H              1 <1>                0.0000
     26 H26          1.8465 -16.3550  10.6683 H              1 <1>                0.0000
@<TRIPOS>BOND
    1    1    2 1     
    2    1   11 1     
    3    1   12 1     
    4    1   13 1     
    5    2    3 1     
    6    2   14 1     
    7    2   15 1     
    8    3    4 1     
    9    3    8 1     
   10    3    5 1     
   11    5    6 1     
   12    5   16 1     
   13    5   17 1     
   14    6    7 1     
   15    6   18 1     
   16    6   19 1     
   17    7    8 1     
   18    7   20 1     
   19    7   21 1     
   20    8    9 1     
   21    8   22 1     
   22    9   10 1     
   23    9   23 1     
   24    9   24 1     
   25   10   25 1     
   26   10   26 1     
@<TRIPOS>SUBSTRUCTURE
      1 ****           1
@<TRIPOS>SET
DONOR_HYDROGENS      STATIC     ATOMS    <user>   **** ""
3 4 25 26
ATOM$RED        STATIC     ATOMS    COLORGROUP SYSTEM
3 4 25 26
@<TRIPOS>COMMENT
> <Gold.Version>
2022.2.0

> <Gold.Id.Protein>
3pbl|protein|mol2

> <Gold.Protein.RotatedTorsions>
[ 1303 1298 1297 1294 ] final  -13.83 input  179.99 | X-H torsion
[ 2461 2456 2455 2452 ] final  -21.80 input   30.03 | X-H torsion
[ 2515 2510 2509 2506 ] final   61.05 input  -89.99 | X-H torsion
[ 3721 3712 3711 3710 ] final   37.32 input -179.91 | X-H torsion
[ 3841 3832 3831 3830 ] final  -51.20 input -179.91 | X-H torsion
[ 3767 3762 3761 3758 ] final  176.32 input  -89.99 | X-H torsion
[ 2472 2467 2466 2463 ] final  -58.65 input  -89.97 | X-H torsion

> <Gold.Protein.ActiveResidues>
 VAL82   VAL86   LEU89   PHE106  VAL107  ASP110  VAL111  MET112  CYS114  THR115 
 CYS181  SER182  ILE183  PHE188  VAL189  ILE190  SER192  SER193  SER196  TRP342 
 PHE345  PHE346  HIS349  VAL350  TYR365  THR369  GLY372  TYR373 

> <Gold.Protein.RotatedAtoms>
    3.3371   -9.6795    3.9384 H   0  0  0  0  0  0  0  0  0  0  0  0  # atno 1303 bound_to 1298
    0.7242   -8.1455    7.0772 H   0  0  0  0  0  0  0  0  0  0  0  0  # atno 2461 bound_to 2456
   -3.7177   -5.1801    8.9414 H   0  0  0  0  0  0  0  0  0  0  0  0  # atno 2472 bound_to 2467
    2.1448   -7.4680    5.4646 H   0  0  0  0  0  0  0  0  0  0  0  0  # atno 2515 bound_to 2510
   -2.4993  -18.0205   13.6919 H   0  0  0  0  0  0  0  0  0  0  0  0  # atno 3721 bound_to 3712
   -4.0627  -22.5781   11.5420 H   0  0  0  0  0  0  0  0  0  0  0  0  # atno 3767 bound_to 3762
    1.5789  -19.8961    9.1275 H   0  0  0  0  0  0  0  0  0  0  0  0  # atno 3841 bound_to 3832
    4.4174   -8.4894    4.2266 LP  0  0  0  0  0  0  0  0  0  0  0  0  # atno 4297 bound_to 1298
    4.6080   -9.9523    4.9267 LP  0  0  0  0  0  0  0  0  0  0  0  0  # atno 4298 bound_to 1298
    0.8553   -9.2741    8.2504 LP  0  0  0  0  0  0  0  0  0  0  0  0  # atno 4299 bound_to 2456
    2.1581   -8.3884    7.8204 LP  0  0  0  0  0  0  0  0  0  0  0  0  # atno 4300 bound_to 2456
    2.8213   -8.4833    4.3795 LP  0  0  0  0  0  0  0  0  0  0  0  0  # atno 4301 bound_to 2510
    2.3307   -9.0482    5.8310 LP  0  0  0  0  0  0  0  0  0  0  0  0  # atno 4302 bound_to 2510
   -3.1729  -17.0965   14.8191 LP  0  0  0  0  0  0  0  0  0  0  0  0  # atno 4306 bound_to 3712
   -3.4693  -16.8249   13.2364 LP  0  0  0  0  0  0  0  0  0  0  0  0  # atno 4307 bound_to 3712
    2.8589  -20.0645    8.1739 LP  0  0  0  0  0  0  0  0  0  0  0  0  # atno 4314 bound_to 3832
    2.5467  -21.1577    9.3461 LP  0  0  0  0  0  0  0  0  0  0  0  0  # atno 4315 bound_to 3832
   -4.6205  -23.2625   10.1682 LP  0  0  0  0  0  0  0  0  0  0  0  0  # atno 4318 bound_to 3762
   -5.4439  -22.0344   10.8612 LP  0  0  0  0  0  0  0  0  0  0  0  0  # atno 4319 bound_to 3762
   -5.3340   -5.3916    9.0371 LP  0  0  0  0  0  0  0  0  0  0  0  0  # atno 4320 bound_to 2467
   -4.6651   -4.8219    7.6606 LP  0  0  0  0  0  0  0  0  0  0  0  0  # atno 4321 bound_to 2467

> <Gold.Score>
     Score     S(PLP)   S(hbond)     S(cho)   S(metal)  DE(clash)   DE(tors)     intcor
     39.70     -30.93       3.00       0.00       0.00       0.00       0.12       0.00

> <Gold.PLP.Fitness>
39.7027

> <Gold.PLP.PLP>
-30.9330

> <Gold.PLP.part.hbond>
-2.0000

> <Gold.PLP.part.metal>
0.0000

> <Gold.PLP.part.buried>
-3.1995

> <Gold.PLP.part.nonpolar>
-25.8538

> <Gold.PLP.part.repulsive>
0.0000

> <Gold.PLP.ligand.clash>
0.0000

> <Gold.PLP.ligand.torsion>
0.1160

> <Gold.PLP.Chemscore.Hbond>
3.0000

> <Gold.PLP.Chemscore.CHOScore>
0.0000

> <Gold.PLP.Chemscore.Metal>
0.0000

> <Gold.Chemscore.Hbonds>
donor molecule, donor type, donor heavy atom, donor atom, acceptor molecule, acceptor atom, score
      L1  H     3     4       P1  1227  2.00
      L1  H    10    26       P1  1227  1.00

> <Gold.PLP.Chemscore.Internal.Correction>
0.0016

