#       Name:                amine_i003
#       Creating user name   fsindt
#       Creation time:       Fri Aug 11 18:08:23 2023


#       File generated by GOLD software.
#

@<TRIPOS>MOLECULE
amine_i003|amine|mol2|3|dock18
    26    26     1
SMALL
NO_CHARGES


@<TRIPOS>ATOM
      1 C1          -0.7000 -17.9936   9.3310 C.3            1 <1>                0.0000
      2 C2          -0.7003 -18.0398  10.8602 C.3            1 <1>                0.0000
      3 N3           0.4665 -17.3089  11.3724 N.4            1 <1>                0.0000
      4 H4           1.2757 -17.5215  10.8085 H              1 <1>                0.0000
      5 C5           0.1999 -15.8552  11.3321 C.3            1 <1>                0.0000
      6 C6          -0.3001 -15.5050  12.7557 C.3            1 <1>                0.0000
      7 C7           0.5833 -16.4294  13.6344 C.3            1 <1>                0.0000
      8 C8           0.7208 -17.6980  12.7717 C.3            1 <1>                0.0000
      9 C9           2.1360 -18.2647  12.9013 C.3            1 <1>                0.0000
     10 N10          2.3493 -19.2896  11.8707 N.3            1 <1>                0.0000
     11 H11         -0.7465 -16.9565   8.9988 H              1 <1>                0.0000
     12 H12          0.2123 -18.4555   8.9537 H              1 <1>                0.0000
     13 H13         -1.5658 -18.5360   8.9510 H              1 <1>                0.0000
     14 H14         -1.6127 -17.5779  11.2376 H              1 <1>                0.0000
     15 H15         -0.6538 -19.0770  11.1925 H              1 <1>                0.0000
     16 H16          1.1151 -15.3078  11.1060 H              1 <1>                0.0000
     17 H17         -0.5697 -15.6310  10.5936 H              1 <1>                0.0000
     18 H18         -0.1173 -14.4556  12.9867 H              1 <1>                0.0000
     19 H19         -1.3560 -15.7502  12.8700 H              1 <1>                0.0000
     20 H20          1.5582 -15.9754  13.8124 H              1 <1>                0.0000
     21 H21          0.0850 -16.6566  14.5769 H              1 <1>                0.0000
     22 H22         -0.0096 -18.4426  13.0882 H              1 <1>                0.0000
     23 H23          2.8621 -17.4622  12.7713 H              1 <1>                0.0000
     24 H24          2.2599 -18.7105  13.8881 H              1 <1>                0.0000
     25 H25          1.7105 -20.0614  11.9906 H              1 <1>                0.0000
     26 H26          2.2695 -18.8945  10.9458 H              1 <1>                0.0000
@<TRIPOS>BOND
    1    1    2 1     
    2    1   11 1     
    3    1   12 1     
    4    1   13 1     
    5    2    3 1     
    6    2   14 1     
    7    2   15 1     
    8    3    4 1     
    9    3    8 1     
   10    3    5 1     
   11    5    6 1     
   12    5   16 1     
   13    5   17 1     
   14    6    7 1     
   15    6   18 1     
   16    6   19 1     
   17    7    8 1     
   18    7   20 1     
   19    7   21 1     
   20    8    9 1     
   21    8   22 1     
   22    9   10 1     
   23    9   23 1     
   24    9   24 1     
   25   10   25 1     
   26   10   26 1     
@<TRIPOS>SUBSTRUCTURE
      1 ****           1
@<TRIPOS>SET
DONOR_HYDROGENS      STATIC     ATOMS    <user>   **** ""
3 4 25 26
ATOM$RED        STATIC     ATOMS    COLORGROUP SYSTEM
3 4 25 26
@<TRIPOS>COMMENT
> <Gold.Version>
2022.2.0

> <Gold.Id.Protein>
3pbl|protein|mol2

> <Gold.Protein.RotatedTorsions>
[ 1303 1298 1297 1294 ] final   45.35 input  179.99 | X-H torsion
[ 2461 2456 2455 2452 ] final  -57.24 input   30.03 | X-H torsion
[ 2515 2510 2509 2506 ] final   19.55 input  -89.99 | X-H torsion
[ 3721 3712 3711 3710 ] final   28.24 input -179.91 | X-H torsion
[ 3841 3832 3831 3830 ] final  115.41 input -179.91 | X-H torsion
[ 3767 3762 3761 3758 ] final  161.80 input  -89.99 | X-H torsion
[ 2472 2467 2466 2463 ] final  123.62 input  -89.97 | X-H torsion

> <Gold.Protein.ActiveResidues>
 VAL82   VAL86   LEU89   PHE106  VAL107  ASP110  VAL111  MET112  CYS114  THR115 
 CYS181  SER182  ILE183  PHE188  VAL189  ILE190  SER192  SER193  SER196  TRP342 
 PHE345  PHE346  HIS349  VAL350  TYR365  THR369  GLY372  TYR373 

> <Gold.Protein.RotatedAtoms>
    3.8137  -10.2555    4.4931 H   0  0  0  0  0  0  0  0  0  0  0  0  # atno 1303 bound_to 1298
    0.3846   -8.5268    7.3395 H   0  0  0  0  0  0  0  0  0  0  0  0  # atno 2461 bound_to 2456
   -5.4415   -5.0963    8.1828 H   0  0  0  0  0  0  0  0  0  0  0  0  # atno 2472 bound_to 2467
    2.4046   -7.4692    4.8494 H   0  0  0  0  0  0  0  0  0  0  0  0  # atno 2515 bound_to 2510
   -2.4796  -18.0339   13.8269 H   0  0  0  0  0  0  0  0  0  0  0  0  # atno 3721 bound_to 3712
   -3.9642  -22.7573   11.4198 H   0  0  0  0  0  0  0  0  0  0  0  0  # atno 3767 bound_to 3762
    3.0564  -20.7648    8.9903 H   0  0  0  0  0  0  0  0  0  0  0  0  # atno 3841 bound_to 3832
    3.6427   -8.7855    3.8032 LP  0  0  0  0  0  0  0  0  0  0  0  0  # atno 4297 bound_to 1298
    4.9059   -9.0800    4.7953 LP  0  0  0  0  0  0  0  0  0  0  0  0  # atno 4298 bound_to 1298
    1.4076   -9.2310    8.4001 LP  0  0  0  0  0  0  0  0  0  0  0  0  # atno 4299 bound_to 2456
    1.9453   -8.0504    7.4083 LP  0  0  0  0  0  0  0  0  0  0  0  0  # atno 4300 bound_to 2456
    2.7948   -9.0502    4.7320 LP  0  0  0  0  0  0  0  0  0  0  0  0  # atno 4301 bound_to 2510
    2.0973   -8.4802    6.0940 LP  0  0  0  0  0  0  0  0  0  0  0  0  # atno 4302 bound_to 2510
   -3.2464  -16.9772   14.7614 LP  0  0  0  0  0  0  0  0  0  0  0  0  # atno 4306 bound_to 3712
   -3.4186  -16.9286   13.1382 LP  0  0  0  0  0  0  0  0  0  0  0  0  # atno 4307 bound_to 3712
    1.5296  -20.5598    9.4405 LP  0  0  0  0  0  0  0  0  0  0  0  0  # atno 4314 bound_to 3832
    2.1691  -19.6590    8.2380 LP  0  0  0  0  0  0  0  0  0  0  0  0  # atno 4315 bound_to 3832
   -4.8231  -23.1634   10.0916 LP  0  0  0  0  0  0  0  0  0  0  0  0  # atno 4318 bound_to 3762
   -5.3398  -21.9543   11.0599 LP  0  0  0  0  0  0  0  0  0  0  0  0  # atno 4319 bound_to 3762
   -3.8330   -4.8623    8.0269 LP  0  0  0  0  0  0  0  0  0  0  0  0  # atno 4320 bound_to 2467
   -4.4426   -5.4349    9.4294 LP  0  0  0  0  0  0  0  0  0  0  0  0  # atno 4321 bound_to 2467

> <Gold.Score>
     Score     S(PLP)   S(hbond)     S(cho)   S(metal)  DE(clash)   DE(tors)     intcor
     33.41     -24.86       3.00       0.00       0.00       0.00       0.22       0.00

> <Gold.PLP.Fitness>
33.4120

> <Gold.PLP.PLP>
-24.8587

> <Gold.PLP.part.hbond>
-2.0000

> <Gold.PLP.part.metal>
0.0000

> <Gold.PLP.part.buried>
-2.7595

> <Gold.PLP.part.nonpolar>
-20.6856

> <Gold.PLP.part.repulsive>
0.0000

> <Gold.PLP.ligand.clash>
0.0000

> <Gold.PLP.ligand.torsion>
0.2241

> <Gold.PLP.Chemscore.Hbond>
3.0000

> <Gold.PLP.Chemscore.CHOScore>
0.0000

> <Gold.PLP.Chemscore.Metal>
0.0000

> <Gold.Chemscore.Hbonds>
donor molecule, donor type, donor heavy atom, donor atom, acceptor molecule, acceptor atom, score
      L1  H     3     4       P1  1227  2.00
      L1  H    10    26       P1  1227  1.00

> <Gold.PLP.Chemscore.Internal.Correction>
0.0015

