#       Name:                amine_i003
#       Creating user name   fsindt
#       Creation time:       Fri Aug 11 18:08:21 2023


#       File generated by GOLD software.
#

@<TRIPOS>MOLECULE
amine_i003|amine|mol2|3|dock15
    26    26     1
SMALL
NO_CHARGES


@<TRIPOS>ATOM
      1 C1          -0.3378 -19.3260  11.5099 C.3            1 <1>                0.0000
      2 C2          -0.6822 -17.8374  11.4312 C.3            1 <1>                0.0000
      3 N3           0.5238 -17.0411  11.6952 N.4            1 <1>                0.0000
      4 H4           1.2591 -17.3170  11.0619 H              1 <1>                0.0000
      5 C5           0.2219 -15.6054  11.5120 C.3            1 <1>                0.0000
      6 C6          -0.1006 -15.0842  12.9346 C.3            1 <1>                0.0000
      7 C7           0.9078 -15.8867  13.7984 C.3            1 <1>                0.0000
      8 C8           0.9626 -17.2517  13.0870 C.3            1 <1>                0.0000
      9 C9           2.3951 -17.7890  13.1013 C.3            1 <1>                0.0000
     10 N10          2.5700 -18.7462  12.0007 N.3            1 <1>                0.0000
     11 H11          0.4237 -19.5625  10.7669 H              1 <1>                0.0000
     12 H12          0.0407 -19.5592  12.5052 H              1 <1>                0.0000
     13 H13         -1.2327 -19.9168  11.3140 H              1 <1>                0.0000
     14 H14         -1.0608 -17.6041  10.4359 H              1 <1>                0.0000
     15 H15         -1.4438 -17.6007  12.1742 H              1 <1>                0.0000
     16 H16          1.0884 -15.0846  11.1044 H              1 <1>                0.0000
     17 H17         -0.6402 -15.4795  10.8571 H              1 <1>                0.0000
     18 H18          0.0867 -14.0131  13.0098 H              1 <1>                0.0000
     19 H19         -1.1276 -15.3200  13.2133 H              1 <1>                0.0000
     20 H20          1.8870 -15.4080  13.7922 H              1 <1>                0.0000
     21 H21          0.5386 -15.9982  14.8180 H              1 <1>                0.0000
     22 H22          0.2951 -17.9558  13.5838 H              1 <1>                0.0000
     23 H23          3.0945 -16.9621  12.9783 H              1 <1>                0.0000
     24 H24          2.5863 -18.2885  14.0510 H              1 <1>                0.0000
     25 H25          2.5614 -18.2761  11.1079 H              1 <1>                0.0000
     26 H26          3.4166 -19.2823  12.1189 H              1 <1>                0.0000
@<TRIPOS>BOND
    1    1    2 1     
    2    1   11 1     
    3    1   12 1     
    4    1   13 1     
    5    2    3 1     
    6    2   14 1     
    7    2   15 1     
    8    3    4 1     
    9    3    8 1     
   10    3    5 1     
   11    5    6 1     
   12    5   16 1     
   13    5   17 1     
   14    6    7 1     
   15    6   18 1     
   16    6   19 1     
   17    7    8 1     
   18    7   20 1     
   19    7   21 1     
   20    8    9 1     
   21    8   22 1     
   22    9   10 1     
   23    9   23 1     
   24    9   24 1     
   25   10   25 1     
   26   10   26 1     
@<TRIPOS>SUBSTRUCTURE
      1 ****           1
@<TRIPOS>SET
DONOR_HYDROGENS      STATIC     ATOMS    <user>   **** ""
3 4 25 26
ATOM$RED        STATIC     ATOMS    COLORGROUP SYSTEM
3 4 25 26
@<TRIPOS>COMMENT
> <Gold.Version>
2022.2.0

> <Gold.Id.Protein>
3pbl|protein|mol2

> <Gold.Protein.RotatedTorsions>
[ 1303 1298 1297 1294 ] final  -26.99 input  179.99 | X-H torsion
[ 2461 2456 2455 2452 ] final -141.58 input   30.03 | X-H torsion
[ 2515 2510 2509 2506 ] final  -76.16 input  -89.99 | X-H torsion
[ 3721 3712 3711 3710 ] final  -88.82 input -179.91 | X-H torsion
[ 3841 3832 3831 3830 ] final  153.09 input -179.91 | X-H torsion
[ 3767 3762 3761 3758 ] final -140.87 input  -89.99 | X-H torsion
[ 2472 2467 2466 2463 ] final  117.33 input  -89.97 | X-H torsion

> <Gold.Protein.ActiveResidues>
 VAL82   VAL86   LEU89   PHE106  VAL107  ASP110  VAL111  MET112  CYS114  THR115 
 CYS181  SER182  ILE183  PHE188  VAL189  ILE190  SER192  SER193  SER196  TRP342 
 PHE345  PHE346  HIS349  VAL350  TYR365  THR369  GLY372  TYR373 

> <Gold.Protein.RotatedAtoms>
    3.3327   -9.4792    3.8576 H   0  0  0  0  0  0  0  0  0  0  0  0  # atno 1303 bound_to 1298
    0.8520   -9.2737    8.2489 H   0  0  0  0  0  0  0  0  0  0  0  0  # atno 2461 bound_to 2456
   -5.3977   -5.0603    8.0962 H   0  0  0  0  0  0  0  0  0  0  0  0  # atno 2472 bound_to 2467
    2.8357   -8.7464    4.4804 H   0  0  0  0  0  0  0  0  0  0  0  0  # atno 2515 bound_to 2510
   -3.0163  -16.9630   14.6920 H   0  0  0  0  0  0  0  0  0  0  0  0  # atno 3721 bound_to 3712
   -4.5580  -22.1086   11.6314 H   0  0  0  0  0  0  0  0  0  0  0  0  # atno 3767 bound_to 3762
    3.1158  -20.3694    8.5996 H   0  0  0  0  0  0  0  0  0  0  0  0  # atno 3841 bound_to 3832
    4.5766   -8.5485    4.3602 LP  0  0  0  0  0  0  0  0  0  0  0  0  # atno 4297 bound_to 1298
    4.4532  -10.0936    4.8740 LP  0  0  0  0  0  0  0  0  0  0  0  0  # atno 4298 bound_to 1298
    2.1584   -8.3909    7.8230 LP  0  0  0  0  0  0  0  0  0  0  0  0  # atno 4299 bound_to 2456
    0.7272   -8.1437    7.0764 LP  0  0  0  0  0  0  0  0  0  0  0  0  # atno 4300 bound_to 2456
    2.2196   -8.8425    5.9894 LP  0  0  0  0  0  0  0  0  0  0  0  0  # atno 4301 bound_to 2510
    2.2412   -7.4100    5.2059 LP  0  0  0  0  0  0  0  0  0  0  0  0  # atno 4302 bound_to 2510
   -3.4184  -16.9289   13.1380 LP  0  0  0  0  0  0  0  0  0  0  0  0  # atno 4306 bound_to 3712
   -2.6269  -18.2133   13.7630 LP  0  0  0  0  0  0  0  0  0  0  0  0  # atno 4307 bound_to 3712
    1.9708  -20.9804    9.5439 LP  0  0  0  0  0  0  0  0  0  0  0  0  # atno 4314 bound_to 3832
    1.6593  -19.6951    8.5860 LP  0  0  0  0  0  0  0  0  0  0  0  0  # atno 4315 bound_to 3832
   -4.1024  -23.3062   10.6190 LP  0  0  0  0  0  0  0  0  0  0  0  0  # atno 4318 bound_to 3762
   -5.4669  -22.4601   10.3210 LP  0  0  0  0  0  0  0  0  0  0  0  0  # atno 4319 bound_to 3762
   -3.7742   -4.8854    8.1089 LP  0  0  0  0  0  0  0  0  0  0  0  0  # atno 4320 bound_to 2467
   -4.5452   -5.4478    9.4340 LP  0  0  0  0  0  0  0  0  0  0  0  0  # atno 4321 bound_to 2467

> <Gold.Score>
     Score     S(PLP)   S(hbond)     S(cho)   S(metal)  DE(clash)   DE(tors)     intcor
     33.95     -25.43       3.00       0.00       0.00       0.00       0.24       0.00

> <Gold.PLP.Fitness>
33.9529

> <Gold.PLP.PLP>
-25.4292

> <Gold.PLP.part.hbond>
-2.0000

> <Gold.PLP.part.metal>
0.0000

> <Gold.PLP.part.buried>
-2.8528

> <Gold.PLP.part.nonpolar>
-21.2073

> <Gold.PLP.part.repulsive>
0.0000

> <Gold.PLP.ligand.clash>
0.0000

> <Gold.PLP.ligand.torsion>
0.2389

> <Gold.PLP.Chemscore.Hbond>
3.0000

> <Gold.PLP.Chemscore.CHOScore>
0.0000

> <Gold.PLP.Chemscore.Metal>
0.0000

> <Gold.Chemscore.Hbonds>
donor molecule, donor type, donor heavy atom, donor atom, acceptor molecule, acceptor atom, score
      L1  H     3     4       P1  1227  2.00
      L1  H    10    25       P1  1227  1.00

> <Gold.PLP.Chemscore.Internal.Correction>
0.0015

