#       Name:                plp ligand
#       Creating user name   fsindt
#       Creation time:       Fri Aug 11 18:08:13 2023


#       File generated by GOLD software.
#

@<TRIPOS>MOLECULE
plp ligand
    26    26     1
SMALL
NO_CHARGES


@<TRIPOS>ATOM
      1 C1           2.2774  -1.5840   0.0124 NONPOLAR       1 <1>                0.0000
      2 C2           1.1194  -0.9301  -0.7440 NONPOLAR       1 <1>                0.0000
      3 N3           0.2521  -0.2210   0.2063 DONOR          1 <1>                0.0000
      4 H4          -0.0396  -0.8524   0.9372                1 <1>                0.0000
      5 C5           0.9873   0.9178   0.7966 NONPOLAR       1 <1>                0.0000
      6 C6           0.5806   2.1400  -0.0638 NONPOLAR       1 <1>                0.0000
      7 C7          -0.9131   1.8364  -0.3532 NONPOLAR       1 <1>                0.0000
      8 C8          -0.9322   0.3031  -0.4985 NONPOLAR       1 <1>                0.0000
      9 C9          -2.2038  -0.2640   0.1357 NONPOLAR       1 <1>                0.0000
     10 N10         -2.1410  -1.7317   0.1304 DONACC         1 <1>                0.0000
     11 H11          2.8544  -0.8162   0.5277                1 <1>                0.0000
     12 H12          1.8819  -2.2917   0.7410                1 <1>                0.0000
     13 H13          2.9209  -2.1102  -0.6928                1 <1>                0.0000
     14 H14          1.5149  -0.2224  -1.4727                1 <1>                0.0000
     15 H15          0.5423  -1.6979  -1.2594                1 <1>                0.0000
     16 H16          0.6866   1.0669   1.8337                1 <1>                0.0000
     17 H17          2.0623   0.7495   0.7327                1 <1>                0.0000
     18 H18          0.6886   3.0671   0.4991                1 <1>                0.0000
     19 H19          1.1577   2.1765  -0.9877                1 <1>                0.0000
     20 H20         -1.5394   2.1535   0.4806                1 <1>                0.0000
     21 H21         -1.2312   2.3151  -1.2794                1 <1>                0.0000
     22 H22         -0.8874   0.0300  -1.5528                1 <1>                0.0000
     23 H23         -2.2878   0.0923   1.1624                1 <1>                0.0000
     24 H24         -3.0722   0.0645  -0.4352                1 <1>                0.0000
     25 H25         -1.3094  -2.0597   0.5984                1 <1>                0.0000
     26 H26         -2.9701  -2.1306   0.5445                1 <1>                0.0000
@<TRIPOS>BOND
    1    1    2 1     
    2    1   11 1     
    3    1   12 1     
    4    1   13 1     
    5    2    3 1     
    6    2   14 1     
    7    2   15 1     
    8    3    4 1     
    9    3    8 1     
   10    3    5 1     
   11    5    6 1     
   12    5   16 1     
   13    5   17 1     
   14    6    7 1     
   15    6   18 1     
   16    6   19 1     
   17    7    8 1     
   18    7   20 1     
   19    7   21 1     
   20    8    9 1     
   21    8   22 1     
   22    9   10 1     
   23    9   23 1     
   24    9   24 1     
   25   10   25 1     
   26   10   26 1     
@<TRIPOS>SUBSTRUCTURE
      1 ****           1
@<TRIPOS>SET
DONOR_HYDROGENS      STATIC     ATOMS    <user>   **** ""
3 4 25 26
ATOM$RED        STATIC     ATOMS    COLORGROUP SYSTEM
3 4 25 26
