#       Name:                EN300-6461477_i001
#       Creating user name   aseyller
#       Creation time:       Fri Apr 21 13:40:51 2023


#       File generated by GOLD software.
#

@<TRIPOS>MOLECULE
EN300-6461477_i001|amine_1|mol2|454|dock17
    19    19     1
SMALL
USER_CHARGES


@<TRIPOS>ATOM
      1 C1          31.8002  37.6003  35.4122 C.3            1 <1>                0.0000
      2 C2          31.0847  37.2673  36.6960 C.ar           1 <1>                0.0000
      3 C3          31.6053  36.3102  37.5468 C.ar           1 <1>                0.0000
      4 C4          30.9558  36.0001  38.7241 C.ar           1 <1>                0.0000
      5 C5          29.7688  36.6537  39.0596 C.ar           1 <1>                0.0000
      6 C6          29.0932  36.3338  40.2810 C.1            1 <1>                0.0000
      7 C7          28.5394  36.0716  41.2825 C.1            1 <1>                0.0000
      8 C8          29.2433  37.6189  38.2020 C.ar           1 <1>                0.0000
      9 C9          29.9065  37.9277  37.0238 C.ar           1 <1>                0.0000
     10 N10         29.3844  38.8946  36.1612 N.pl3          1 <1>                0.0000
     11 H11         31.4345  36.9538  34.6144 H              1 <1>                0.0000
     12 H12         31.6121  38.6416  35.1510 H              1 <1>                0.0000
     13 H13         32.8713  37.4460  35.5426 H              1 <1>                0.0000
     14 H14         32.5234  35.8032  37.2889 H              1 <1>                0.0000
     15 H15         31.3656  35.2515  39.3859 H              1 <1>                0.0000
     16 H16         28.0440  35.8372  42.1781 H              1 <1>                0.0000
     17 H17         28.3253  38.1277  38.4565 H              1 <1>                0.0000
     18 H18         29.8442  39.1052  35.3334 H              1 <1>                0.0000
     19 H19         28.5621  39.3554  36.3901 H              1 <1>                0.0000
@<TRIPOS>BOND
    1    1    2 1     
    2    1   11 1     
    3    1   12 1     
    4    1   13 1     
    5    2    3 ar    
    6    2    9 ar    
    7    3    4 ar    
    8    3   14 1     
    9    4    5 ar    
   10    4   15 1     
   11    5    6 1     
   12    5    8 ar    
   13    6    7 3     
   14    7   16 1     
   15    8    9 ar    
   16    8   17 1     
   17    9   10 1     
   18   10   18 1     
   19   10   19 1     
@<TRIPOS>SUBSTRUCTURE
      1 ****           1
@<TRIPOS>SET
DONOR_HYDROGENS      STATIC     ATOMS    <user>   **** ""
2 18 19
ATOM$RED        STATIC     ATOMS    COLORGROUP SYSTEM
2 18 19
@<TRIPOS>COMMENT
> <Gold.Version>
2022.2.0

> <Gold.Id.Protein>
1qkm|1qkm_protein|mol2

> <Gold.Protein.RotatedTorsions>
[  496  491  490  487 ] final   16.92 input  -89.99 | X-H torsion

> <Gold.Protein.ActiveResidues>
 MET295  LEU298  THR299  LEU301  ALA302  GLU305  TRP335  MET336  LEU339  MET340 
 GLY342  LEU343  ARG346  PHE356  ILE373  ILE376  PHE377  LEU380  LYS471  GLY472 
 MET473  HIS475  LEU476  LEU477  ASN478  MET479  VAL484  VAL487 

> <Gold.Protein.RotatedAtoms>
   36.2918   33.9600   42.3439 H   0  0  0  0  0  0  0  0  0  0  0  0  # atno 496  bound_to 491 

> <Gold.Score>
     Score     S(PLP)   S(hbond)     S(cho)   S(metal)  DE(clash)   DE(tors)     intcor
     34.15     -34.15       0.00       0.00       0.00       0.00       0.00       0.00

> <Gold.PLP.Fitness>
34.1491

> <Gold.PLP.PLP>
-34.1491

> <Gold.PLP.part.hbond>
0.0000

> <Gold.PLP.part.metal>
0.0000

> <Gold.PLP.part.buried>
-2.0261

> <Gold.PLP.part.nonpolar>
-32.5760

> <Gold.PLP.part.repulsive>
0.0000

> <Gold.PLP.ligand.clash>
0.0000

> <Gold.PLP.ligand.torsion>
0.0000

> <Gold.PLP.Chemscore.Hbond>
0.0000

> <Gold.PLP.Chemscore.CHOScore>
0.0000

> <Gold.PLP.Chemscore.Metal>
0.0000

> <Gold.PLP.Chemscore.Internal.Correction>
0.0000

