#       Name:                EN300-6461477_i001
#       Creating user name   aseyller
#       Creation time:       Fri Apr 21 13:40:52 2023


#       File generated by GOLD software.
#

@<TRIPOS>MOLECULE
EN300-6461477_i001|amine_1|mol2|454|dock19
    19    19     1
SMALL
USER_CHARGES


@<TRIPOS>ATOM
      1 C1          25.8041  37.1101  39.0944 C.3            1 <1>                0.0000
      2 C2          27.2684  36.8577  38.8428 C.ar           1 <1>                0.0000
      3 C3          27.9104  35.8203  39.4928 C.ar           1 <1>                0.0000
      4 C4          29.2510  35.5831  39.2673 C.ar           1 <1>                0.0000
      5 C5          29.9635  36.3920  38.3803 C.ar           1 <1>                0.0000
      6 C6          31.3547  36.1475  38.1445 C.1            1 <1>                0.0000
      7 C7          32.4951  35.9470  37.9510 C.1            1 <1>                0.0000
      8 C8          29.3165  37.4382  37.7246 C.ar           1 <1>                0.0000
      9 C9          27.9676  37.6651  37.9535 C.ar           1 <1>                0.0000
     10 N10         27.3144  38.7120  37.2986 N.pl3          1 <1>                0.0000
     11 H11         25.6931  37.8045  39.9272 H              1 <1>                0.0000
     12 H12         25.3505  37.5389  38.2010 H              1 <1>                0.0000
     13 H13         25.3098  36.1695  39.3373 H              1 <1>                0.0000
     14 H14         27.3610  35.1935  40.1796 H              1 <1>                0.0000
     15 H15         29.7490  34.7718  39.7773 H              1 <1>                0.0000
     16 H16         33.5152  35.7678  37.7780 H              1 <1>                0.0000
     17 H17         29.8628  38.0672  37.0374 H              1 <1>                0.0000
     18 H18         26.3727  38.8755  37.4644 H              1 <1>                0.0000
     19 H19         27.8026  39.2754  36.6780 H              1 <1>                0.0000
@<TRIPOS>BOND
    1    1    2 1     
    2    1   11 1     
    3    1   12 1     
    4    1   13 1     
    5    2    3 ar    
    6    2    9 ar    
    7    3    4 ar    
    8    3   14 1     
    9    4    5 ar    
   10    4   15 1     
   11    5    6 1     
   12    5    8 ar    
   13    6    7 3     
   14    7   16 1     
   15    8    9 ar    
   16    8   17 1     
   17    9   10 1     
   18   10   18 1     
   19   10   19 1     
@<TRIPOS>SUBSTRUCTURE
      1 ****           1
@<TRIPOS>SET
DONOR_HYDROGENS      STATIC     ATOMS    <user>   **** ""
2 18 19
ATOM$RED        STATIC     ATOMS    COLORGROUP SYSTEM
2 18 19
@<TRIPOS>COMMENT
> <Gold.Version>
2022.2.0

> <Gold.Id.Protein>
1qkm|1qkm_protein|mol2

> <Gold.Protein.RotatedTorsions>
[  496  491  490  487 ] final  -15.19 input  -89.99 | X-H torsion

> <Gold.Protein.ActiveResidues>
 MET295  LEU298  THR299  LEU301  ALA302  GLU305  TRP335  MET336  LEU339  MET340 
 GLY342  LEU343  ARG346  PHE356  ILE373  ILE376  PHE377  LEU380  LYS471  GLY472 
 MET473  HIS475  LEU476  LEU477  ASN478  MET479  VAL484  VAL487 

> <Gold.Protein.RotatedAtoms>
   36.2699   34.4142   42.0884 H   0  0  0  0  0  0  0  0  0  0  0  0  # atno 496  bound_to 491 

> <Gold.Score>
     Score     S(PLP)   S(hbond)     S(cho)   S(metal)  DE(clash)   DE(tors)     intcor
     35.43     -35.43       0.00       0.00       0.00       0.00       0.00       0.00

> <Gold.PLP.Fitness>
35.4265

> <Gold.PLP.PLP>
-35.4265

> <Gold.PLP.part.hbond>
0.0000

> <Gold.PLP.part.metal>
0.0000

> <Gold.PLP.part.buried>
-1.8379

> <Gold.PLP.part.nonpolar>
-33.5173

> <Gold.PLP.part.repulsive>
0.0000

> <Gold.PLP.ligand.clash>
0.0000

> <Gold.PLP.ligand.torsion>
0.0000

> <Gold.PLP.Chemscore.Hbond>
0.0000

> <Gold.PLP.Chemscore.CHOScore>
0.0000

> <Gold.PLP.Chemscore.Metal>
0.0000

> <Gold.PLP.Chemscore.Internal.Correction>
0.0000

