#       Name:                EN300-6461477_i001
#       Creating user name   aseyller
#       Creation time:       Fri Apr 21 13:40:52 2023


#       File generated by GOLD software.
#

@<TRIPOS>MOLECULE
EN300-6461477_i001|amine_1|mol2|454|dock20
    19    19     1
SMALL
USER_CHARGES


@<TRIPOS>ATOM
      1 C1          27.2818  36.9853  39.4990 C.3            1 <1>                0.0000
      2 C2          28.5376  36.9139  38.6690 C.ar           1 <1>                0.0000
      3 C3          28.5316  37.3822  37.3684 C.ar           1 <1>                0.0000
      4 C4          29.6778  37.3201  36.6025 C.ar           1 <1>                0.0000
      5 C5          30.8487  36.7831  37.1403 C.ar           1 <1>                0.0000
      6 C6          32.0394  36.7181  36.3475 C.1            1 <1>                0.0000
      7 C7          33.0155  36.6647  35.6974 C.1            1 <1>                0.0000
      8 C8          30.8552  36.3107  38.4518 C.ar           1 <1>                0.0000
      9 C9          29.6998  36.3827  39.2156 C.ar           1 <1>                0.0000
     10 N10         29.7013  35.9111  40.5306 N.pl3          1 <1>                0.0000
     11 H11         26.7051  36.0702  39.3646 H              1 <1>                0.0000
     12 H12         27.5469  37.0966  40.5503 H              1 <1>                0.0000
     13 H13         26.6850  37.8406  39.1821 H              1 <1>                0.0000
     14 H14         27.6267  37.7978  36.9503 H              1 <1>                0.0000
     15 H15         29.6688  37.6868  35.5867 H              1 <1>                0.0000
     16 H16         33.8886  36.6170  35.1160 H              1 <1>                0.0000
     17 H17         31.7582  35.8943  38.8732 H              1 <1>                0.0000
     18 H18         28.8911  35.9544  41.0623 H              1 <1>                0.0000
     19 H19         30.5125  35.5404  40.9119 H              1 <1>                0.0000
@<TRIPOS>BOND
    1    1    2 1     
    2    1   11 1     
    3    1   12 1     
    4    1   13 1     
    5    2    3 ar    
    6    2    9 ar    
    7    3    4 ar    
    8    3   14 1     
    9    4    5 ar    
   10    4   15 1     
   11    5    6 1     
   12    5    8 ar    
   13    6    7 3     
   14    7   16 1     
   15    8    9 ar    
   16    8   17 1     
   17    9   10 1     
   18   10   18 1     
   19   10   19 1     
@<TRIPOS>SUBSTRUCTURE
      1 ****           1
@<TRIPOS>SET
DONOR_HYDROGENS      STATIC     ATOMS    <user>   **** ""
2 18 19
ATOM$RED        STATIC     ATOMS    COLORGROUP SYSTEM
2 18 19
@<TRIPOS>COMMENT
> <Gold.Version>
2022.2.0

> <Gold.Id.Protein>
1qkm|1qkm_protein|mol2

> <Gold.Protein.RotatedTorsions>
[  496  491  490  487 ] final -146.63 input  -89.99 | X-H torsion

> <Gold.Protein.ActiveResidues>
 MET295  LEU298  THR299  LEU301  ALA302  GLU305  TRP335  MET336  LEU339  MET340 
 GLY342  LEU343  ARG346  PHE356  ILE373  ILE376  PHE377  LEU380  LYS471  GLY472 
 MET473  HIS475  LEU476  LEU477  ASN478  MET479  VAL484  VAL487 

> <Gold.Protein.RotatedAtoms>
   37.2133   33.9724   40.7203 H   0  0  0  0  0  0  0  0  0  0  0  0  # atno 496  bound_to 491 

> <Gold.Score>
     Score     S(PLP)   S(hbond)     S(cho)   S(metal)  DE(clash)   DE(tors)     intcor
     33.94     -30.94       1.00       0.00       0.00       0.00       0.00       0.00

> <Gold.PLP.Fitness>
33.9443

> <Gold.PLP.PLP>
-30.9443

> <Gold.PLP.part.hbond>
-1.0000

> <Gold.PLP.part.metal>
0.0000

> <Gold.PLP.part.buried>
-2.0393

> <Gold.PLP.part.nonpolar>
-27.7184

> <Gold.PLP.part.repulsive>
0.0695

> <Gold.PLP.ligand.clash>
0.0000

> <Gold.PLP.ligand.torsion>
0.0000

> <Gold.PLP.Chemscore.Hbond>
1.0000

> <Gold.PLP.Chemscore.CHOScore>
0.0000

> <Gold.PLP.Chemscore.Metal>
0.0000

> <Gold.Chemscore.Hbonds>
donor molecule, donor type, donor heavy atom, donor atom, acceptor molecule, acceptor atom, score
      L1  H    10    19       P1   470  1.00

> <Gold.PLP.Chemscore.Internal.Correction>
0.0000

