#       Name:                EN300-6461477_i001
#       Creating user name   aseyller
#       Creation time:       Fri Apr 21 13:40:50 2023


#       File generated by GOLD software.
#

@<TRIPOS>MOLECULE
EN300-6461477_i001|amine_1|mol2|454|dock11
    19    19     1
SMALL
USER_CHARGES


@<TRIPOS>ATOM
      1 C1          31.9673  38.7529  34.2970 C.3            1 <1>                0.0000
      2 C2          31.9344  37.6108  35.2797 C.ar           1 <1>                0.0000
      3 C3          30.8528  37.4623  36.1276 C.ar           1 <1>                0.0000
      4 C4          30.8157  36.4190  37.0300 C.ar           1 <1>                0.0000
      5 C5          31.8727  35.5091  37.0890 C.ar           1 <1>                0.0000
      6 C6          31.8362  34.4254  38.0244 C.1            1 <1>                0.0000
      7 C7          31.8063  33.5369  38.7912 C.1            1 <1>                0.0000
      8 C8          32.9636  35.6584  36.2342 C.ar           1 <1>                0.0000
      9 C9          32.9891  36.7069  35.3267 C.ar           1 <1>                0.0000
     10 N10         34.0799  36.8608  34.4676 N.pl3          1 <1>                0.0000
     11 H11         32.4432  39.6171  34.7602 H              1 <1>                0.0000
     12 H12         32.5333  38.4562  33.4141 H              1 <1>                0.0000
     13 H13         30.9491  39.0112  34.0060 H              1 <1>                0.0000
     14 H14         30.0341  38.1654  36.0837 H              1 <1>                0.0000
     15 H15         29.9690  36.3067  37.6909 H              1 <1>                0.0000
     16 H16         31.7797  32.7423  39.4771 H              1 <1>                0.0000
     17 H17         33.7842  34.9575  36.2754 H              1 <1>                0.0000
     18 H18         34.1013  37.5985  33.8381 H              1 <1>                0.0000
     19 H19         34.8159  36.2298  34.5006 H              1 <1>                0.0000
@<TRIPOS>BOND
    1    1    2 1     
    2    1   11 1     
    3    1   12 1     
    4    1   13 1     
    5    2    3 ar    
    6    2    9 ar    
    7    3    4 ar    
    8    3   14 1     
    9    4    5 ar    
   10    4   15 1     
   11    5    6 1     
   12    5    8 ar    
   13    6    7 3     
   14    7   16 1     
   15    8    9 ar    
   16    8   17 1     
   17    9   10 1     
   18   10   18 1     
   19   10   19 1     
@<TRIPOS>SUBSTRUCTURE
      1 ****           1
@<TRIPOS>SET
DONOR_HYDROGENS      STATIC     ATOMS    <user>   **** ""
2 18 19
ATOM$RED        STATIC     ATOMS    COLORGROUP SYSTEM
2 18 19
@<TRIPOS>COMMENT
> <Gold.Version>
2022.2.0

> <Gold.Id.Protein>
1qkm|1qkm_protein|mol2

> <Gold.Protein.RotatedTorsions>
[  496  491  490  487 ] final  -42.93 input  -89.99 | X-H torsion

> <Gold.Protein.ActiveResidues>
 MET295  LEU298  THR299  LEU301  ALA302  GLU305  TRP335  MET336  LEU339  MET340 
 GLY342  LEU343  ARG346  PHE356  ILE373  ILE376  PHE377  LEU380  LYS471  GLY472 
 MET473  HIS475  LEU476  LEU477  ASN478  MET479  VAL484  VAL487 

> <Gold.Protein.RotatedAtoms>
   36.3800   34.6685   41.7310 H   0  0  0  0  0  0  0  0  0  0  0  0  # atno 496  bound_to 491 

> <Gold.Score>
     Score     S(PLP)   S(hbond)     S(cho)   S(metal)  DE(clash)   DE(tors)     intcor
     37.73     -35.52       0.74       0.00       0.00       0.00       0.00       0.00

> <Gold.PLP.Fitness>
37.7328

> <Gold.PLP.PLP>
-35.5248

> <Gold.PLP.part.hbond>
-1.0000

> <Gold.PLP.part.metal>
0.0000

> <Gold.PLP.part.buried>
-2.9654

> <Gold.PLP.part.nonpolar>
-31.9153

> <Gold.PLP.part.repulsive>
0.0989

> <Gold.PLP.ligand.clash>
0.0000

> <Gold.PLP.ligand.torsion>
0.0000

> <Gold.PLP.Chemscore.Hbond>
0.7360

> <Gold.PLP.Chemscore.CHOScore>
0.0000

> <Gold.PLP.Chemscore.Metal>
0.0000

> <Gold.Chemscore.Hbonds>
donor molecule, donor type, donor heavy atom, donor atom, acceptor molecule, acceptor atom, score
      L1  H    10    18       P1  3229  0.74

> <Gold.PLP.Chemscore.Internal.Correction>
0.0000

