#       Name:                EN300-6461477_i001
#       Creating user name   aseyller
#       Creation time:       Fri Apr 21 13:40:50 2023


#       File generated by GOLD software.
#

@<TRIPOS>MOLECULE
EN300-6461477_i001|amine_1|mol2|454|dock12
    19    19     1
SMALL
USER_CHARGES


@<TRIPOS>ATOM
      1 C1          30.7434  36.8624  36.8265 C.3            1 <1>                0.0000
      2 C2          29.5824  36.8887  37.7869 C.ar           1 <1>                0.0000
      3 C3          28.4002  37.5053  37.4221 C.ar           1 <1>                0.0000
      4 C4          27.3328  37.5333  38.2962 C.ar           1 <1>                0.0000
      5 C5          27.4445  36.9376  39.5538 C.ar           1 <1>                0.0000
      6 C6          26.3380  36.9651  40.4624 C.1            1 <1>                0.0000
      7 C7          25.4309  36.9877  41.2073 C.1            1 <1>                0.0000
      8 C8          28.6364  36.3157  39.9221 C.ar           1 <1>                0.0000
      9 C9          29.7017  36.2878  39.0345 C.ar           1 <1>                0.0000
     10 N10         30.8981  35.6654  39.3986 N.pl3          1 <1>                0.0000
     11 H11         31.3657  37.7431  36.9848 H              1 <1>                0.0000
     12 H12         31.3358  35.9636  36.9971 H              1 <1>                0.0000
     13 H13         30.3684  36.8616  35.8031 H              1 <1>                0.0000
     14 H14         28.3118  37.9670  36.4498 H              1 <1>                0.0000
     15 H15         26.4110  38.0164  38.0075 H              1 <1>                0.0000
     16 H16         24.6196  37.0079  41.8736 H              1 <1>                0.0000
     17 H17         28.7285  35.8532  40.8937 H              1 <1>                0.0000
     18 H18         31.6458  35.6525  38.7807 H              1 <1>                0.0000
     19 H19         30.9812  35.2461  40.2693 H              1 <1>                0.0000
@<TRIPOS>BOND
    1    1    2 1     
    2    1   11 1     
    3    1   12 1     
    4    1   13 1     
    5    2    3 ar    
    6    2    9 ar    
    7    3    4 ar    
    8    3   14 1     
    9    4    5 ar    
   10    4   15 1     
   11    5    6 1     
   12    5    8 ar    
   13    6    7 3     
   14    7   16 1     
   15    8    9 ar    
   16    8   17 1     
   17    9   10 1     
   18   10   18 1     
   19   10   19 1     
@<TRIPOS>SUBSTRUCTURE
      1 ****           1
@<TRIPOS>SET
DONOR_HYDROGENS      STATIC     ATOMS    <user>   **** ""
2 18 19
ATOM$RED        STATIC     ATOMS    COLORGROUP SYSTEM
2 18 19
@<TRIPOS>COMMENT
> <Gold.Version>
2022.2.0

> <Gold.Id.Protein>
1qkm|1qkm_protein|mol2

> <Gold.Protein.RotatedTorsions>
[  496  491  490  487 ] final   54.32 input  -89.99 | X-H torsion

> <Gold.Protein.ActiveResidues>
 MET295  LEU298  THR299  LEU301  ALA302  GLU305  TRP335  MET336  LEU339  MET340 
 GLY342  LEU343  ARG346  PHE356  ILE373  ILE376  PHE377  LEU380  LYS471  GLY472 
 MET473  HIS475  LEU476  LEU477  ASN478  MET479  VAL484  VAL487 

> <Gold.Protein.RotatedAtoms>
   36.5058   33.3943   42.3346 H   0  0  0  0  0  0  0  0  0  0  0  0  # atno 496  bound_to 491 

> <Gold.Score>
     Score     S(PLP)   S(hbond)     S(cho)   S(metal)  DE(clash)   DE(tors)     intcor
     37.69     -34.69       1.00       0.00       0.00       0.00       0.00       0.00

> <Gold.PLP.Fitness>
37.6931

> <Gold.PLP.PLP>
-34.6931

> <Gold.PLP.part.hbond>
-1.0000

> <Gold.PLP.part.metal>
0.0000

> <Gold.PLP.part.buried>
-0.7420

> <Gold.PLP.part.nonpolar>
-32.3168

> <Gold.PLP.part.repulsive>
0.0613

> <Gold.PLP.ligand.clash>
0.0000

> <Gold.PLP.ligand.torsion>
0.0000

> <Gold.PLP.Chemscore.Hbond>
1.0000

> <Gold.PLP.Chemscore.CHOScore>
0.0000

> <Gold.PLP.Chemscore.Metal>
0.0000

> <Gold.Chemscore.Hbonds>
donor molecule, donor type, donor heavy atom, donor atom, acceptor molecule, acceptor atom, score
      L1  H    10    19       P1   470  1.00

> <Gold.PLP.Chemscore.Internal.Correction>
0.0000

