#       Name:                EN300-6461477_i001
#       Creating user name   aseyller
#       Creation time:       Fri Apr 21 13:40:51 2023


#       File generated by GOLD software.
#

@<TRIPOS>MOLECULE
EN300-6461477_i001|amine_1|mol2|454|dock14
    19    19     1
SMALL
USER_CHARGES


@<TRIPOS>ATOM
      1 C1          29.3564  36.4388  40.2194 C.3            1 <1>                0.0000
      2 C2          30.0838  36.6933  38.9244 C.ar           1 <1>                0.0000
      3 C3          29.7155  37.7594  38.1252 C.ar           1 <1>                0.0000
      4 C4          30.3771  37.9987  36.9381 C.ar           1 <1>                0.0000
      5 C5          31.4222  37.1630  36.5405 C.ar           1 <1>                0.0000
      6 C6          32.1104  37.4096  35.3092 C.1            1 <1>                0.0000
      7 C7          32.6746  37.6118  34.2997 C.1            1 <1>                0.0000
      8 C8          31.7939  36.0878  37.3461 C.ar           1 <1>                0.0000
      9 C9          31.1268  35.8589  38.5402 C.ar           1 <1>                0.0000
     10 N10         31.4958  34.7830  39.3513 N.pl3          1 <1>                0.0000
     11 H11         28.5112  35.7752  40.0369 H              1 <1>                0.0000
     12 H12         30.0364  35.9733  40.9327 H              1 <1>                0.0000
     13 H13         28.9953  37.3838  40.6251 H              1 <1>                0.0000
     14 H14         28.9071  38.4070  38.4308 H              1 <1>                0.0000
     15 H15         30.0861  38.8325  36.3164 H              1 <1>                0.0000
     16 H16         33.1792  37.7927  33.3968 H              1 <1>                0.0000
     17 H17         32.6017  35.4379  37.0435 H              1 <1>                0.0000
     18 H18         31.0241  34.6183  40.1828 H              1 <1>                0.0000
     19 H19         32.2236  34.2007  39.0830 H              1 <1>                0.0000
@<TRIPOS>BOND
    1    1    2 1     
    2    1   11 1     
    3    1   12 1     
    4    1   13 1     
    5    2    3 ar    
    6    2    9 ar    
    7    3    4 ar    
    8    3   14 1     
    9    4    5 ar    
   10    4   15 1     
   11    5    6 1     
   12    5    8 ar    
   13    6    7 3     
   14    7   16 1     
   15    8    9 ar    
   16    8   17 1     
   17    9   10 1     
   18   10   18 1     
   19   10   19 1     
@<TRIPOS>SUBSTRUCTURE
      1 ****           1
@<TRIPOS>SET
DONOR_HYDROGENS      STATIC     ATOMS    <user>   **** ""
2 18 19
ATOM$RED        STATIC     ATOMS    COLORGROUP SYSTEM
2 18 19
@<TRIPOS>COMMENT
> <Gold.Version>
2022.2.0

> <Gold.Id.Protein>
1qkm|1qkm_protein|mol2

> <Gold.Protein.RotatedTorsions>
[  496  491  490  487 ] final -108.20 input  -89.99 | X-H torsion

> <Gold.Protein.ActiveResidues>
 MET295  LEU298  THR299  LEU301  ALA302  GLU305  TRP335  MET336  LEU339  MET340 
 GLY342  LEU343  ARG346  PHE356  ILE373  ILE376  PHE377  LEU380  LYS471  GLY472 
 MET473  HIS475  LEU476  LEU477  ASN478  MET479  VAL484  VAL487 

> <Gold.Protein.RotatedAtoms>
   36.9242   34.4950   40.8891 H   0  0  0  0  0  0  0  0  0  0  0  0  # atno 496  bound_to 491 

> <Gold.Score>
     Score     S(PLP)   S(hbond)     S(cho)   S(metal)  DE(clash)   DE(tors)     intcor
     34.94     -33.85       0.36       0.00       0.00       0.00       0.00       0.00

> <Gold.PLP.Fitness>
34.9399

> <Gold.PLP.PLP>
-33.8479

> <Gold.PLP.part.hbond>
-1.0000

> <Gold.PLP.part.metal>
0.0000

> <Gold.PLP.part.buried>
-0.3925

> <Gold.PLP.part.nonpolar>
-32.4756

> <Gold.PLP.part.repulsive>
0.0982

> <Gold.PLP.ligand.clash>
0.0000

> <Gold.PLP.ligand.torsion>
0.0000

> <Gold.PLP.Chemscore.Hbond>
0.3640

> <Gold.PLP.Chemscore.CHOScore>
0.0000

> <Gold.PLP.Chemscore.Metal>
0.0000

> <Gold.Chemscore.Hbonds>
donor molecule, donor type, donor heavy atom, donor atom, acceptor molecule, acceptor atom, score
      L1  H    10    18       P1   470  0.36

> <Gold.PLP.Chemscore.Internal.Correction>
0.0000

