#       Name:                EN300-6461477_i001
#       Creating user name   aseyller
#       Creation time:       Fri Apr 21 13:40:51 2023


#       File generated by GOLD software.
#

@<TRIPOS>MOLECULE
EN300-6461477_i001|amine_1|mol2|454|dock16
    19    19     1
SMALL
USER_CHARGES


@<TRIPOS>ATOM
      1 C1          26.3186  37.1946  39.2532 C.3            1 <1>                0.0000
      2 C2          27.7679  36.9856  38.8970 C.ar           1 <1>                0.0000
      3 C3          28.2880  37.5679  37.7562 C.ar           1 <1>                0.0000
      4 C4          29.6141  37.3811  37.4237 C.ar           1 <1>                0.0000
      5 C5          30.4355  36.6018  38.2403 C.ar           1 <1>                0.0000
      6 C6          31.8121  36.4068  37.8974 C.1            1 <1>                0.0000
      7 C7          32.9407  36.2470  37.6162 C.1            1 <1>                0.0000
      8 C8          29.9115  36.0144  39.3907 C.ar           1 <1>                0.0000
      9 C9          28.5788  36.2127  39.7196 C.ar           1 <1>                0.0000
     10 N10         28.0490  35.6267  40.8717 N.pl3          1 <1>                0.0000
     11 H11         25.7156  36.4096  38.7970 H              1 <1>                0.0000
     12 H12         26.2019  37.1593  40.3363 H              1 <1>                0.0000
     13 H13         25.9901  38.1660  38.8838 H              1 <1>                0.0000
     14 H14         27.6541  38.1709  37.1230 H              1 <1>                0.0000
     15 H15         30.0165  37.8374  36.5314 H              1 <1>                0.0000
     16 H16         33.9501  36.1041  37.3648 H              1 <1>                0.0000
     17 H17         30.5423  35.4105  40.0262 H              1 <1>                0.0000
     18 H18         27.1150  35.7591  41.0976 H              1 <1>                0.0000
     19 H19         28.6151  35.0873  41.4456 H              1 <1>                0.0000
@<TRIPOS>BOND
    1    1    2 1     
    2    1   11 1     
    3    1   12 1     
    4    1   13 1     
    5    2    3 ar    
    6    2    9 ar    
    7    3    4 ar    
    8    3   14 1     
    9    4    5 ar    
   10    4   15 1     
   11    5    6 1     
   12    5    8 ar    
   13    6    7 3     
   14    7   16 1     
   15    8    9 ar    
   16    8   17 1     
   17    9   10 1     
   18   10   18 1     
   19   10   19 1     
@<TRIPOS>SUBSTRUCTURE
      1 ****           1
@<TRIPOS>SET
DONOR_HYDROGENS      STATIC     ATOMS    <user>   **** ""
2 18 19
ATOM$RED        STATIC     ATOMS    COLORGROUP SYSTEM
2 18 19
@<TRIPOS>COMMENT
> <Gold.Version>
2022.2.0

> <Gold.Id.Protein>
1qkm|1qkm_protein|mol2

> <Gold.Protein.RotatedTorsions>
[  496  491  490  487 ] final  154.29 input  -89.99 | X-H torsion

> <Gold.Protein.ActiveResidues>
 MET295  LEU298  THR299  LEU301  ALA302  GLU305  TRP335  MET336  LEU339  MET340 
 GLY342  LEU343  ARG346  PHE356  ILE373  ILE376  PHE377  LEU380  LYS471  GLY472 
 MET473  HIS475  LEU476  LEU477  ASN478  MET479  VAL484  VAL487 

> <Gold.Protein.RotatedAtoms>
   37.2791   33.1450   41.1401 H   0  0  0  0  0  0  0  0  0  0  0  0  # atno 496  bound_to 491 

> <Gold.Score>
     Score     S(PLP)   S(hbond)     S(cho)   S(metal)  DE(clash)   DE(tors)     intcor
     34.90     -34.90       0.00       0.00       0.00       0.00       0.00       0.00

> <Gold.PLP.Fitness>
34.8965

> <Gold.PLP.PLP>
-34.8965

> <Gold.PLP.part.hbond>
0.0000

> <Gold.PLP.part.metal>
0.0000

> <Gold.PLP.part.buried>
-2.1978

> <Gold.PLP.part.nonpolar>
-32.8616

> <Gold.PLP.part.repulsive>
0.0422

> <Gold.PLP.ligand.clash>
0.0000

> <Gold.PLP.ligand.torsion>
0.0000

> <Gold.PLP.Chemscore.Hbond>
0.0000

> <Gold.PLP.Chemscore.CHOScore>
0.0000

> <Gold.PLP.Chemscore.Metal>
0.0000

> <Gold.PLP.Chemscore.Internal.Correction>
0.0000

