#       Name:                EN300-6461477_i001
#       Creating user name   aseyller
#       Creation time:       Fri Apr 21 13:40:49 2023


#       File generated by GOLD software.
#

@<TRIPOS>MOLECULE
EN300-6461477_i001|amine_1|mol2|454|dock2
    19    19     1
SMALL
USER_CHARGES


@<TRIPOS>ATOM
      1 C1          25.5085  36.5790  41.2018 C.3            1 <1>                0.0000
      2 C2          26.7307  36.7217  40.3317 C.ar           1 <1>                0.0000
      3 C3          26.6124  37.2458  39.0581 C.ar           1 <1>                0.0000
      4 C4          27.7271  37.3795  38.2557 C.ar           1 <1>                0.0000
      5 C5          28.9796  36.9849  38.7293 C.ar           1 <1>                0.0000
      6 C6          30.1378  37.1231  37.8985 C.1            1 <1>                0.0000
      7 C7          31.0873  37.2365  37.2176 C.1            1 <1>                0.0000
      8 C8          29.0994  36.4564  40.0136 C.ar           1 <1>                0.0000
      9 C9          27.9741  36.3313  40.8146 C.ar           1 <1>                0.0000
     10 N10         28.0888  35.8027  42.1026 N.pl3          1 <1>                0.0000
     11 H11         25.0579  35.6003  41.0375 H              1 <1>                0.0000
     12 H12         25.7947  36.6760  42.2490 H              1 <1>                0.0000
     13 H13         24.7890  37.3575  40.9481 H              1 <1>                0.0000
     14 H14         25.6443  37.5513  38.6897 H              1 <1>                0.0000
     15 H15         27.6304  37.7890  37.2611 H              1 <1>                0.0000
     16 H16         31.9366  37.3378  36.6085 H              1 <1>                0.0000
     17 H17         30.0658  36.1495  40.3853 H              1 <1>                0.0000
     18 H18         27.3007  35.7080  42.6601 H              1 <1>                0.0000
     19 H19         28.9567  35.5303  42.4395 H              1 <1>                0.0000
@<TRIPOS>BOND
    1    1    2 1     
    2    1   11 1     
    3    1   12 1     
    4    1   13 1     
    5    2    3 ar    
    6    2    9 ar    
    7    3    4 ar    
    8    3   14 1     
    9    4    5 ar    
   10    4   15 1     
   11    5    6 1     
   12    5    8 ar    
   13    6    7 3     
   14    7   16 1     
   15    8    9 ar    
   16    8   17 1     
   17    9   10 1     
   18   10   18 1     
   19   10   19 1     
@<TRIPOS>SUBSTRUCTURE
      1 ****           1
@<TRIPOS>SET
DONOR_HYDROGENS      STATIC     ATOMS    <user>   **** ""
2 18 19
ATOM$RED        STATIC     ATOMS    COLORGROUP SYSTEM
2 18 19
@<TRIPOS>COMMENT
> <Gold.Version>
2022.2.0

> <Gold.Id.Protein>
1qkm|1qkm_protein|mol2

> <Gold.Protein.RotatedTorsions>
[  496  491  490  487 ] final   42.48 input  -89.99 | X-H torsion

> <Gold.Protein.ActiveResidues>
 MET295  LEU298  THR299  LEU301  ALA302  GLU305  TRP335  MET336  LEU339  MET340 
 GLY342  LEU343  ARG346  PHE356  ILE373  ILE376  PHE377  LEU380  LYS471  GLY472 
 MET473  HIS475  LEU476  LEU477  ASN478  MET479  VAL484  VAL487 

> <Gold.Protein.RotatedAtoms>
   36.4199   33.5640   42.3755 H   0  0  0  0  0  0  0  0  0  0  0  0  # atno 496  bound_to 491 

> <Gold.Score>
     Score     S(PLP)   S(hbond)     S(cho)   S(metal)  DE(clash)   DE(tors)     intcor
     40.96     -37.98       0.99       0.00       0.00       0.00       0.00       0.00

> <Gold.PLP.Fitness>
40.9596

> <Gold.PLP.PLP>
-37.9836

> <Gold.PLP.part.hbond>
-1.0000

> <Gold.PLP.part.metal>
0.0000

> <Gold.PLP.part.buried>
-2.4709

> <Gold.PLP.part.nonpolar>
-35.2102

> <Gold.PLP.part.repulsive>
0.0720

> <Gold.PLP.ligand.clash>
0.0000

> <Gold.PLP.ligand.torsion>
0.0000

> <Gold.PLP.Chemscore.Hbond>
0.9920

> <Gold.PLP.Chemscore.CHOScore>
0.0000

> <Gold.PLP.Chemscore.Metal>
0.0000

> <Gold.Chemscore.Hbonds>
donor molecule, donor type, donor heavy atom, donor atom, acceptor molecule, acceptor atom, score
      L1  H    10    18       P1   582  0.99

> <Gold.PLP.Chemscore.Internal.Correction>
0.0000

