#       Name:                EN300-6461477_i001
#       Creating user name   aseyller
#       Creation time:       Fri Apr 21 13:40:50 2023


#       File generated by GOLD software.
#

@<TRIPOS>MOLECULE
EN300-6461477_i001|amine_1|mol2|454|dock10
    19    19     1
SMALL
USER_CHARGES


@<TRIPOS>ATOM
      1 C1          32.7200  36.3959  35.5282 C.3            1 <1>                0.0000
      2 C2          31.8432  36.3972  36.7539 C.ar           1 <1>                0.0000
      3 C3          31.9565  35.3801  37.6832 C.ar           1 <1>                0.0000
      4 C4          31.1570  35.3746  38.8080 C.ar           1 <1>                0.0000
      5 C5          30.2300  36.3985  39.0106 C.ar           1 <1>                0.0000
      6 C6          29.3996  36.3951  40.1772 C.1            1 <1>                0.0000
      7 C7          28.7190  36.3923  41.1338 C.1            1 <1>                0.0000
      8 C8          30.1154  37.4244  38.0738 C.ar           1 <1>                0.0000
      9 C9          30.9273  37.4242  36.9493 C.ar           1 <1>                0.0000
     10 N10         30.8167  38.4502  36.0078 N.pl3          1 <1>                0.0000
     11 H11         32.2211  35.8530  34.7254 H              1 <1>                0.0000
     12 H12         32.9045  37.4226  35.2125 H              1 <1>                0.0000
     13 H13         33.6681  35.9110  35.7603 H              1 <1>                0.0000
     14 H14         32.6728  34.5869  37.5282 H              1 <1>                0.0000
     15 H15         31.2484  34.5780  39.5314 H              1 <1>                0.0000
     16 H16         28.1102  36.3899  41.9893 H              1 <1>                0.0000
     17 H17         29.3999  38.2190  38.2253 H              1 <1>                0.0000
     18 H18         31.3792  38.4460  35.2175 H              1 <1>                0.0000
     19 H19         30.1774  39.1668  36.1443 H              1 <1>                0.0000
@<TRIPOS>BOND
    1    1    2 1     
    2    1   11 1     
    3    1   12 1     
    4    1   13 1     
    5    2    3 ar    
    6    2    9 ar    
    7    3    4 ar    
    8    3   14 1     
    9    4    5 ar    
   10    4   15 1     
   11    5    6 1     
   12    5    8 ar    
   13    6    7 3     
   14    7   16 1     
   15    8    9 ar    
   16    8   17 1     
   17    9   10 1     
   18   10   18 1     
   19   10   19 1     
@<TRIPOS>SUBSTRUCTURE
      1 ****           1
@<TRIPOS>SET
DONOR_HYDROGENS      STATIC     ATOMS    <user>   **** ""
2 18 19
ATOM$RED        STATIC     ATOMS    COLORGROUP SYSTEM
2 18 19
@<TRIPOS>COMMENT
> <Gold.Version>
2022.2.0

> <Gold.Id.Protein>
1qkm|1qkm_protein|mol2

> <Gold.Protein.RotatedTorsions>
[  496  491  490  487 ] final  -41.42 input  -89.99 | X-H torsion

> <Gold.Protein.ActiveResidues>
 MET295  LEU298  THR299  LEU301  ALA302  GLU305  TRP335  MET336  LEU339  MET340 
 GLY342  LEU343  ARG346  PHE356  ILE373  ILE376  PHE377  LEU380  LYS471  GLY472 
 MET473  HIS475  LEU476  LEU477  ASN478  MET479  VAL484  VAL487 

> <Gold.Protein.RotatedAtoms>
   36.3713   34.6592   41.7522 H   0  0  0  0  0  0  0  0  0  0  0  0  # atno 496  bound_to 491 

> <Gold.Score>
     Score     S(PLP)   S(hbond)     S(cho)   S(metal)  DE(clash)   DE(tors)     intcor
     35.78     -35.78       0.00       0.00       0.00       0.00       0.00       0.00

> <Gold.PLP.Fitness>
35.7813

> <Gold.PLP.PLP>
-35.7813

> <Gold.PLP.part.hbond>
0.0000

> <Gold.PLP.part.metal>
0.0000

> <Gold.PLP.part.buried>
-1.9298

> <Gold.PLP.part.nonpolar>
-34.4275

> <Gold.PLP.part.repulsive>
0.0000

> <Gold.PLP.ligand.clash>
0.0000

> <Gold.PLP.ligand.torsion>
0.0000

> <Gold.PLP.Chemscore.Hbond>
0.0000

> <Gold.PLP.Chemscore.CHOScore>
0.0000

> <Gold.PLP.Chemscore.Metal>
0.0000

> <Gold.PLP.Chemscore.Internal.Correction>
0.0000

