#       Name:                EN300-6461477_i001
#       Creating user name   aseyller
#       Creation time:       Fri Apr 21 13:40:48 2023


#       File generated by GOLD software.
#

@<TRIPOS>MOLECULE
EN300-6461477_i001
    19    19     1
SMALL
USER_CHARGES


@<TRIPOS>ATOM
      1 C1           2.5891   0.7159   0.0012 C.3            1 <1>                0.0000
      2 C2           1.0998   0.4854   0.0011 C.ar           1 <1>                0.0000
      3 C3           0.2356   1.5643  -0.0009 C.ar           1 <1>                0.0000
      4 C4          -1.1293   1.3610  -0.0011 C.ar           1 <1>                0.0000
      5 C5          -1.6417   0.0625   0.0007 C.ar           1 <1>                0.0000
      6 C6          -3.0577  -0.1509   0.0001 C.1            1 <1>                0.0000
      7 C7          -4.2186  -0.3258  -0.0005 C.1            1 <1>                0.0000
      8 C8          -0.7706  -1.0258   0.0027 C.ar           1 <1>                0.0000
      9 C9           0.5996  -0.8113  -0.0029 C.ar           1 <1>                0.0000
     10 N10          1.4768  -1.8985  -0.0014 N.pl3          1 <1>                0.0000
     11 H11          2.9477   0.7730   1.0289 H              1 <1>                0.0000
     12 H12          3.0844  -0.1088  -0.5111 H              1 <1>                0.0000
     13 H13          2.8122   1.6502  -0.5139 H              1 <1>                0.0000
     14 H14          0.6300   2.5697  -0.0020 H              1 <1>                0.0000
     15 H15         -1.8011   2.2066  -0.0023 H              1 <1>                0.0000
     16 H16         -5.2569  -0.4823  -0.0010 H              1 <1>                0.0000
     17 H17         -1.1614  -2.0326   0.0041 H              1 <1>                0.0000
     18 H18          2.4351  -1.7485   0.0024 H              1 <1>                0.0000
     19 H19          1.1275  -2.8035  -0.0041 H              1 <1>                0.0000
@<TRIPOS>BOND
    1    1    2 1     
    2    1   11 1     
    3    1   12 1     
    4    1   13 1     
    5    2    3 ar    
    6    2    9 ar    
    7    3    4 ar    
    8    3   14 1     
    9    4    5 ar    
   10    4   15 1     
   11    5    6 1     
   12    5    8 ar    
   13    6    7 3     
   14    7   16 1     
   15    8    9 ar    
   16    8   17 1     
   17    9   10 1     
   18   10   18 1     
   19   10   19 1     
@<TRIPOS>SUBSTRUCTURE
      1 ****           1
@<TRIPOS>SET
DONOR_HYDROGENS      STATIC     ATOMS    <user>   **** ""
2 18 19
ATOM$RED        STATIC     ATOMS    COLORGROUP SYSTEM
2 18 19
