#       Name:                EN300-6461477_i001
#       Creating user name   aseyller
#       Creation time:       Fri Apr 21 13:40:50 2023


#       File generated by GOLD software.
#

@<TRIPOS>MOLECULE
EN300-6461477_i001|amine_1|mol2|454|dock8
    19    19     1
SMALL
USER_CHARGES


@<TRIPOS>ATOM
      1 C1          25.2024  36.6218  41.4486 C.3            1 <1>                0.0000
      2 C2          26.1952  36.8010  40.3290 C.ar           1 <1>                0.0000
      3 C3          25.8775  37.6019  39.2480 C.ar           1 <1>                0.0000
      4 C4          26.7815  37.7707  38.2192 C.ar           1 <1>                0.0000
      5 C5          28.0217  37.1318  38.2677 C.ar           1 <1>                0.0000
      6 C6          28.9616  37.3058  37.2014 C.1            1 <1>                0.0000
      7 C7          29.7322  37.4486  36.3273 C.1            1 <1>                0.0000
      8 C8          28.3425  36.3241  39.3576 C.ar           1 <1>                0.0000
      9 C9          27.4295  36.1651  40.3894 C.ar           1 <1>                0.0000
     10 N10         27.7464  35.3572  41.4841 N.pl3          1 <1>                0.0000
     11 H11         24.5632  35.7655  41.2336 H              1 <1>                0.0000
     12 H12         25.7360  36.4512  42.3835 H              1 <1>                0.0000
     13 H13         24.5900  37.5190  41.5381 H              1 <1>                0.0000
     14 H14         24.9184  38.0969  39.2084 H              1 <1>                0.0000
     15 H15         26.5294  38.3970  37.3762 H              1 <1>                0.0000
     16 H16         30.4214  37.5762  35.5455 H              1 <1>                0.0000
     17 H17         29.3005  35.8273  39.4004 H              1 <1>                0.0000
     18 H18         27.1048  35.2398  42.2022 H              1 <1>                0.0000
     19 H19         28.6079  34.9134  41.5261 H              1 <1>                0.0000
@<TRIPOS>BOND
    1    1    2 1     
    2    1   11 1     
    3    1   12 1     
    4    1   13 1     
    5    2    3 ar    
    6    2    9 ar    
    7    3    4 ar    
    8    3   14 1     
    9    4    5 ar    
   10    4   15 1     
   11    5    6 1     
   12    5    8 ar    
   13    6    7 3     
   14    7   16 1     
   15    8    9 ar    
   16    8   17 1     
   17    9   10 1     
   18   10   18 1     
   19   10   19 1     
@<TRIPOS>SUBSTRUCTURE
      1 ****           1
@<TRIPOS>SET
DONOR_HYDROGENS      STATIC     ATOMS    <user>   **** ""
2 18 19
ATOM$RED        STATIC     ATOMS    COLORGROUP SYSTEM
2 18 19
@<TRIPOS>COMMENT
> <Gold.Version>
2022.2.0

> <Gold.Id.Protein>
1qkm|1qkm_protein|mol2

> <Gold.Protein.RotatedTorsions>
[  496  491  490  487 ] final -153.15 input  -89.99 | X-H torsion

> <Gold.Protein.ActiveResidues>
 MET295  LEU298  THR299  LEU301  ALA302  GLU305  TRP335  MET336  LEU339  MET340 
 GLY342  LEU343  ARG346  PHE356  ILE373  ILE376  PHE377  LEU380  LYS471  GLY472 
 MET473  HIS475  LEU476  LEU477  ASN478  MET479  VAL484  VAL487 

> <Gold.Protein.RotatedAtoms>
   37.2466   33.8706   40.7278 H   0  0  0  0  0  0  0  0  0  0  0  0  # atno 496  bound_to 491 

> <Gold.Score>
     Score     S(PLP)   S(hbond)     S(cho)   S(metal)  DE(clash)   DE(tors)     intcor
     38.28     -35.28       1.00       0.00       0.00       0.00       0.00       0.00

> <Gold.PLP.Fitness>
38.2842

> <Gold.PLP.PLP>
-35.2842

> <Gold.PLP.part.hbond>
-1.0000

> <Gold.PLP.part.metal>
0.0000

> <Gold.PLP.part.buried>
-0.0654

> <Gold.PLP.part.nonpolar>
-34.2793

> <Gold.PLP.part.repulsive>
0.0610

> <Gold.PLP.ligand.clash>
0.0000

> <Gold.PLP.ligand.torsion>
0.0000

> <Gold.PLP.Chemscore.Hbond>
1.0000

> <Gold.PLP.Chemscore.CHOScore>
0.0000

> <Gold.PLP.Chemscore.Metal>
0.0000

> <Gold.Chemscore.Hbonds>
donor molecule, donor type, donor heavy atom, donor atom, acceptor molecule, acceptor atom, score
      L1  H    10    18       P1   582  1.00

> <Gold.PLP.Chemscore.Internal.Correction>
0.0000

