#       Name:                EN300-6461477_i001
#       Creating user name   aseyller
#       Creation time:       Fri Apr 21 13:40:49 2023


#       File generated by GOLD software.
#

@<TRIPOS>MOLECULE
EN300-6461477_i001|amine_1|mol2|454|dock6
    19    19     1
SMALL
USER_CHARGES


@<TRIPOS>ATOM
      1 C1          25.5078  37.0009  41.5025 C.3            1 <1>                0.0000
      2 C2          26.8299  36.6973  40.8460 C.ar           1 <1>                0.0000
      3 C3          27.9033  36.2885  41.6151 C.ar           1 <1>                0.0000
      4 C4          29.1170  36.0086  41.0210 C.ar           1 <1>                0.0000
      5 C5          29.2640  36.1380  39.6389 C.ar           1 <1>                0.0000
      6 C6          30.5224  35.8477  39.0201 C.1            1 <1>                0.0000
      7 C7          31.5541  35.6098  38.5130 C.1            1 <1>                0.0000
      8 C8          28.1819  36.5502  38.8629 C.ar           1 <1>                0.0000
      9 C9          26.9645  36.8237  39.4685 C.ar           1 <1>                0.0000
     10 N10         25.8768  37.2367  38.6952 N.pl3          1 <1>                0.0000
     11 H11         25.4748  38.0537  41.7827 H              1 <1>                0.0000
     12 H12         24.6981  36.7849  40.8056 H              1 <1>                0.0000
     13 H13         25.3946  36.3839  42.3938 H              1 <1>                0.0000
     14 H14         27.7918  36.1880  42.6846 H              1 <1>                0.0000
     15 H15         29.9533  35.6898  41.6255 H              1 <1>                0.0000
     16 H16         32.4768  35.3969  38.0593 H              1 <1>                0.0000
     17 H17         28.2898  36.6521  37.7931 H              1 <1>                0.0000
     18 H18         25.0275  37.4353  39.1197 H              1 <1>                0.0000
     19 H19         25.9709  37.3248  37.7339 H              1 <1>                0.0000
@<TRIPOS>BOND
    1    1    2 1     
    2    1   11 1     
    3    1   12 1     
    4    1   13 1     
    5    2    3 ar    
    6    2    9 ar    
    7    3    4 ar    
    8    3   14 1     
    9    4    5 ar    
   10    4   15 1     
   11    5    6 1     
   12    5    8 ar    
   13    6    7 3     
   14    7   16 1     
   15    8    9 ar    
   16    8   17 1     
   17    9   10 1     
   18   10   18 1     
   19   10   19 1     
@<TRIPOS>SUBSTRUCTURE
      1 ****           1
@<TRIPOS>SET
DONOR_HYDROGENS      STATIC     ATOMS    <user>   **** ""
2 18 19
ATOM$RED        STATIC     ATOMS    COLORGROUP SYSTEM
2 18 19
@<TRIPOS>COMMENT
> <Gold.Version>
2022.2.0

> <Gold.Id.Protein>
1qkm|1qkm_protein|mol2

> <Gold.Protein.RotatedTorsions>
[  496  491  490  487 ] final  126.90 input  -89.99 | X-H torsion

> <Gold.Protein.ActiveResidues>
 MET295  LEU298  THR299  LEU301  ALA302  GLU305  TRP335  MET336  LEU339  MET340 
 GLY342  LEU343  ARG346  PHE356  ILE373  ILE376  PHE377  LEU380  LYS471  GLY472 
 MET473  HIS475  LEU476  LEU477  ASN478  MET479  VAL484  VAL487 

> <Gold.Protein.RotatedAtoms>
   37.1316   32.9596   41.5187 H   0  0  0  0  0  0  0  0  0  0  0  0  # atno 496  bound_to 491 

> <Gold.Score>
     Score     S(PLP)   S(hbond)     S(cho)   S(metal)  DE(clash)   DE(tors)     intcor
     38.30     -38.30       0.00       0.00       0.00       0.00       0.00       0.00

> <Gold.PLP.Fitness>
38.2980

> <Gold.PLP.PLP>
-38.2980

> <Gold.PLP.part.hbond>
0.0000

> <Gold.PLP.part.metal>
0.0000

> <Gold.PLP.part.buried>
0.2193

> <Gold.PLP.part.nonpolar>
-39.3488

> <Gold.PLP.part.repulsive>
0.0662

> <Gold.PLP.ligand.clash>
0.0000

> <Gold.PLP.ligand.torsion>
0.0000

> <Gold.PLP.Chemscore.Hbond>
0.0000

> <Gold.PLP.Chemscore.CHOScore>
0.0000

> <Gold.PLP.Chemscore.Metal>
0.0000

> <Gold.PLP.Chemscore.Internal.Correction>
0.0000

