#       Name:                EN300-6461477_i001
#       Creating user name   aseyller
#       Creation time:       Fri Apr 21 13:40:49 2023


#       File generated by GOLD software.
#

@<TRIPOS>MOLECULE
EN300-6461477_i001|amine_1|mol2|454|dock7
    19    19     1
SMALL
USER_CHARGES


@<TRIPOS>ATOM
      1 C1          32.1531  36.4782  35.7962 C.3            1 <1>                0.0000
      2 C2          31.3447  36.4564  37.0678 C.ar           1 <1>                0.0000
      3 C3          30.5127  37.5172  37.3736 C.ar           1 <1>                0.0000
      4 C4          29.7694  37.5043  38.5361 C.ar           1 <1>                0.0000
      5 C5          29.8559  36.4175  39.4080 C.ar           1 <1>                0.0000
      6 C6          29.0851  36.4017  40.6148 C.1            1 <1>                0.0000
      7 C7          28.4533  36.3887  41.6042 C.1            1 <1>                0.0000
      8 C8          30.6947  35.3476  39.1001 C.ar           1 <1>                0.0000
      9 C9          31.4335  35.3672  37.9265 C.ar           1 <1>                0.0000
     10 N10         32.2752  34.2973  37.6130 N.pl3          1 <1>                0.0000
     11 H11         33.1194  36.9447  35.9881 H              1 <1>                0.0000
     12 H12         32.3057  35.4577  35.4452 H              1 <1>                0.0000
     13 H13         31.6192  37.0481  35.0358 H              1 <1>                0.0000
     14 H14         30.4446  38.3591  36.7005 H              1 <1>                0.0000
     15 H15         29.1208  38.3351  38.7716 H              1 <1>                0.0000
     16 H16         27.8882  36.3771  42.4891 H              1 <1>                0.0000
     17 H17         30.7656  34.5042  39.7709 H              1 <1>                0.0000
     18 H18         32.7978  34.3144  36.7960 H              1 <1>                0.0000
     19 H19         32.3371  33.5372  38.2125 H              1 <1>                0.0000
@<TRIPOS>BOND
    1    1    2 1     
    2    1   11 1     
    3    1   12 1     
    4    1   13 1     
    5    2    3 ar    
    6    2    9 ar    
    7    3    4 ar    
    8    3   14 1     
    9    4    5 ar    
   10    4   15 1     
   11    5    6 1     
   12    5    8 ar    
   13    6    7 3     
   14    7   16 1     
   15    8    9 ar    
   16    8   17 1     
   17    9   10 1     
   18   10   18 1     
   19   10   19 1     
@<TRIPOS>SUBSTRUCTURE
      1 ****           1
@<TRIPOS>SET
DONOR_HYDROGENS      STATIC     ATOMS    <user>   **** ""
2 18 19
ATOM$RED        STATIC     ATOMS    COLORGROUP SYSTEM
2 18 19
@<TRIPOS>COMMENT
> <Gold.Version>
2022.2.0

> <Gold.Id.Protein>
1qkm|1qkm_protein|mol2

> <Gold.Protein.RotatedTorsions>
[  496  491  490  487 ] final -161.62 input  -89.99 | X-H torsion

> <Gold.Protein.ActiveResidues>
 MET295  LEU298  THR299  LEU301  ALA302  GLU305  TRP335  MET336  LEU339  MET340 
 GLY342  LEU343  ARG346  PHE356  ILE373  ILE376  PHE377  LEU380  LYS471  GLY472 
 MET473  HIS475  LEU476  LEU477  ASN478  MET479  VAL484  VAL487 

> <Gold.Protein.RotatedAtoms>
   37.2809   33.7380   40.7533 H   0  0  0  0  0  0  0  0  0  0  0  0  # atno 496  bound_to 491 

> <Gold.Score>
     Score     S(PLP)   S(hbond)     S(cho)   S(metal)  DE(clash)   DE(tors)     intcor
     35.78     -35.78       0.00       0.00       0.00       0.00       0.00       0.00

> <Gold.PLP.Fitness>
35.7762

> <Gold.PLP.PLP>
-35.7762

> <Gold.PLP.part.hbond>
0.0000

> <Gold.PLP.part.metal>
0.0000

> <Gold.PLP.part.buried>
-1.6171

> <Gold.PLP.part.nonpolar>
-34.2991

> <Gold.PLP.part.repulsive>
0.0223

> <Gold.PLP.ligand.clash>
0.0000

> <Gold.PLP.ligand.torsion>
0.0000

> <Gold.PLP.Chemscore.Hbond>
0.0000

> <Gold.PLP.Chemscore.CHOScore>
0.0000

> <Gold.PLP.Chemscore.Metal>
0.0000

> <Gold.PLP.Chemscore.Internal.Correction>
0.0000

