#       Name:                EN300-6461477_i001
#       Creating user name   aseyller
#       Creation time:       Fri Apr 21 13:40:49 2023


#       File generated by GOLD software.
#

@<TRIPOS>MOLECULE
EN300-6461477_i001|amine_1|mol2|454|dock5
    19    19     1
SMALL
USER_CHARGES


@<TRIPOS>ATOM
      1 C1          25.7974  36.7022  40.4635 C.3            1 <1>                0.0000
      2 C2          27.1859  36.5562  39.8963 C.ar           1 <1>                0.0000
      3 C3          27.4628  37.0200  38.6238 C.ar           1 <1>                0.0000
      4 C4          28.7319  36.8898  38.0979 C.ar           1 <1>                0.0000
      5 C5          29.7414  36.2882  38.8512 C.ar           1 <1>                0.0000
      6 C6          31.0593  36.1523  38.3076 C.1            1 <1>                0.0000
      7 C7          32.1397  36.0409  37.8620 C.1            1 <1>                0.0000
      8 C8          29.4628  35.8203  40.1344 C.ar           1 <1>                0.0000
      9 C9          28.1856  35.9608  40.6565 C.ar           1 <1>                0.0000
     10 N10         27.9013  35.4941  41.9421 N.pl3          1 <1>                0.0000
     11 H11         25.2073  35.8213  40.2107 H              1 <1>                0.0000
     12 H12         25.8562  36.8014  41.5472 H              1 <1>                0.0000
     13 H13         25.3244  37.5894  40.0425 H              1 <1>                0.0000
     14 H14         26.6831  37.4855  38.0393 H              1 <1>                0.0000
     15 H15         28.9440  37.2532  37.1032 H              1 <1>                0.0000
     16 H16         33.1060  35.9412  37.4633 H              1 <1>                0.0000
     17 H17         30.2399  35.3540  40.7217 H              1 <1>                0.0000
     18 H18         27.0060  35.5855  42.3043 H              1 <1>                0.0000
     19 H19         28.5991  35.0786  42.4725 H              1 <1>                0.0000
@<TRIPOS>BOND
    1    1    2 1     
    2    1   11 1     
    3    1   12 1     
    4    1   13 1     
    5    2    3 ar    
    6    2    9 ar    
    7    3    4 ar    
    8    3   14 1     
    9    4    5 ar    
   10    4   15 1     
   11    5    6 1     
   12    5    8 ar    
   13    6    7 3     
   14    7   16 1     
   15    8    9 ar    
   16    8   17 1     
   17    9   10 1     
   18   10   18 1     
   19   10   19 1     
@<TRIPOS>SUBSTRUCTURE
      1 ****           1
@<TRIPOS>SET
DONOR_HYDROGENS      STATIC     ATOMS    <user>   **** ""
2 18 19
ATOM$RED        STATIC     ATOMS    COLORGROUP SYSTEM
2 18 19
@<TRIPOS>COMMENT
> <Gold.Version>
2022.2.0

> <Gold.Id.Protein>
1qkm|1qkm_protein|mol2

> <Gold.Protein.RotatedTorsions>
[  496  491  490  487 ] final -113.78 input  -89.99 | X-H torsion

> <Gold.Protein.ActiveResidues>
 MET295  LEU298  THR299  LEU301  ALA302  GLU305  TRP335  MET336  LEU339  MET340 
 GLY342  LEU343  ARG346  PHE356  ILE373  ILE376  PHE377  LEU380  LYS471  GLY472 
 MET473  HIS475  LEU476  LEU477  ASN478  MET479  VAL484  VAL487 

> <Gold.Protein.RotatedAtoms>
   36.9733   34.4324   40.8434 H   0  0  0  0  0  0  0  0  0  0  0  0  # atno 496  bound_to 491 

> <Gold.Score>
     Score     S(PLP)   S(hbond)     S(cho)   S(metal)  DE(clash)   DE(tors)     intcor
     38.94     -37.11       0.61       0.00       0.00       0.00       0.00       0.00

> <Gold.PLP.Fitness>
38.9365

> <Gold.PLP.PLP>
-37.1125

> <Gold.PLP.part.hbond>
-1.0000

> <Gold.PLP.part.metal>
0.0000

> <Gold.PLP.part.buried>
-1.9316

> <Gold.PLP.part.nonpolar>
-34.9833

> <Gold.PLP.part.repulsive>
0.0739

> <Gold.PLP.ligand.clash>
0.0000

> <Gold.PLP.ligand.torsion>
0.0000

> <Gold.PLP.Chemscore.Hbond>
0.6080

> <Gold.PLP.Chemscore.CHOScore>
0.0000

> <Gold.PLP.Chemscore.Metal>
0.0000

> <Gold.Chemscore.Hbonds>
donor molecule, donor type, donor heavy atom, donor atom, acceptor molecule, acceptor atom, score
      L1  H    10    18       P1   582  0.61

> <Gold.PLP.Chemscore.Internal.Correction>
0.0000

