#       Name:                EN300-6461477_i001
#       Creating user name   aseyller
#       Creation time:       Fri Apr 21 13:40:51 2023


#       File generated by GOLD software.
#

@<TRIPOS>MOLECULE
EN300-6461477_i001|amine_1|mol2|454|dock13
    19    19     1
SMALL
USER_CHARGES


@<TRIPOS>ATOM
      1 C1          32.2147  35.7172  38.3257 C.3            1 <1>                0.0000
      2 C2          30.7645  36.0671  38.5396 C.ar           1 <1>                0.0000
      3 C3          29.9906  35.3044  39.3942 C.ar           1 <1>                0.0000
      4 C4          28.6620  35.6188  39.5952 C.ar           1 <1>                0.0000
      5 C5          28.0952  36.7101  38.9346 C.ar           1 <1>                0.0000
      6 C6          26.7169  37.0385  39.1419 C.1            1 <1>                0.0000
      7 C7          25.5869  37.3078  39.3119 C.1            1 <1>                0.0000
      8 C8          28.8753  37.4795  38.0728 C.ar           1 <1>                0.0000
      9 C9          30.2111  37.1591  37.8817 C.ar           1 <1>                0.0000
     10 N10         30.9972  37.9272  37.0195 N.pl3          1 <1>                0.0000
     11 H11         32.3012  35.0221  37.4906 H              1 <1>                0.0000
     12 H12         32.7781  36.6234  38.1038 H              1 <1>                0.0000
     13 H13         32.6134  35.2530  39.2276 H              1 <1>                0.0000
     14 H14         30.4271  34.4595  39.9060 H              1 <1>                0.0000
     15 H15         28.0607  35.0202  40.2633 H              1 <1>                0.0000
     16 H16         24.5762  37.5486  39.4638 H              1 <1>                0.0000
     17 H17         28.4421  38.3250  37.5590 H              1 <1>                0.0000
     18 H18         31.9295  37.6985  36.8799 H              1 <1>                0.0000
     19 H19         30.6108  38.6893  36.5603 H              1 <1>                0.0000
@<TRIPOS>BOND
    1    1    2 1     
    2    1   11 1     
    3    1   12 1     
    4    1   13 1     
    5    2    3 ar    
    6    2    9 ar    
    7    3    4 ar    
    8    3   14 1     
    9    4    5 ar    
   10    4   15 1     
   11    5    6 1     
   12    5    8 ar    
   13    6    7 3     
   14    7   16 1     
   15    8    9 ar    
   16    8   17 1     
   17    9   10 1     
   18   10   18 1     
   19   10   19 1     
@<TRIPOS>SUBSTRUCTURE
      1 ****           1
@<TRIPOS>SET
DONOR_HYDROGENS      STATIC     ATOMS    <user>   **** ""
2 18 19
ATOM$RED        STATIC     ATOMS    COLORGROUP SYSTEM
2 18 19
@<TRIPOS>COMMENT
> <Gold.Version>
2022.2.0

> <Gold.Id.Protein>
1qkm|1qkm_protein|mol2

> <Gold.Protein.RotatedTorsions>
[  496  491  490  487 ] final  138.78 input  -89.99 | X-H torsion

> <Gold.Protein.ActiveResidues>
 MET295  LEU298  THR299  LEU301  ALA302  GLU305  TRP335  MET336  LEU339  MET340 
 GLY342  LEU343  ARG346  PHE356  ILE373  ILE376  PHE377  LEU380  LYS471  GLY472 
 MET473  HIS475  LEU476  LEU477  ASN478  MET479  VAL484  VAL487 

> <Gold.Protein.RotatedAtoms>
   37.2075   33.0173   41.3484 H   0  0  0  0  0  0  0  0  0  0  0  0  # atno 496  bound_to 491 

> <Gold.Score>
     Score     S(PLP)   S(hbond)     S(cho)   S(metal)  DE(clash)   DE(tors)     intcor
     35.94     -35.94       0.00       0.00       0.00       0.00       0.00       0.00

> <Gold.PLP.Fitness>
35.9447

> <Gold.PLP.PLP>
-35.9447

> <Gold.PLP.part.hbond>
0.0000

> <Gold.PLP.part.metal>
0.0000

> <Gold.PLP.part.buried>
-1.5467

> <Gold.PLP.part.nonpolar>
-34.8944

> <Gold.PLP.part.repulsive>
0.0000

> <Gold.PLP.ligand.clash>
0.0000

> <Gold.PLP.ligand.torsion>
0.0000

> <Gold.PLP.Chemscore.Hbond>
0.0000

> <Gold.PLP.Chemscore.CHOScore>
0.0000

> <Gold.PLP.Chemscore.Metal>
0.0000

> <Gold.PLP.Chemscore.Internal.Correction>
0.0000

