#       Name:                EN300-6461477_i001
#       Creating user name   aseyller
#       Creation time:       Fri Apr 21 13:40:51 2023


#       File generated by GOLD software.
#

@<TRIPOS>MOLECULE
EN300-6461477_i001|amine_1|mol2|454|dock15
    19    19     1
SMALL
USER_CHARGES


@<TRIPOS>ATOM
      1 C1          31.8023  33.6519  38.6282 C.3            1 <1>                0.0000
      2 C2          31.3677  35.0500  38.2712 C.ar           1 <1>                0.0000
      3 C3          30.2286  35.5847  38.8435 C.ar           1 <1>                0.0000
      4 C4          29.8245  36.8643  38.5215 C.ar           1 <1>                0.0000
      5 C5          30.5667  37.6235  37.6152 C.ar           1 <1>                0.0000
      6 C6          30.1495  38.9517  37.2799 C.1            1 <1>                0.0000
      7 C7          29.8075  40.0406  37.0049 C.1            1 <1>                0.0000
      8 C8          31.7154  37.0847  37.0379 C.ar           1 <1>                0.0000
      9 C9          32.1167  35.7999  37.3721 C.ar           1 <1>                0.0000
     10 N10         33.2674  35.2556  36.7967 N.pl3          1 <1>                0.0000
     11 H11         31.3433  32.9420  37.9401 H              1 <1>                0.0000
     12 H12         32.8873  33.5789  38.5550 H              1 <1>                0.0000
     13 H13         31.4906  33.4235  39.6473 H              1 <1>                0.0000
     14 H14         29.6529  34.9989  39.5447 H              1 <1>                0.0000
     15 H15         28.9338  37.2782  38.9706 H              1 <1>                0.0000
     16 H16         29.5016  41.0145  36.7590 H              1 <1>                0.0000
     17 H17         32.2935  37.6675  36.3360 H              1 <1>                0.0000
     18 H18         33.5438  34.3541  37.0246 H              1 <1>                0.0000
     19 H19         33.7899  35.7790  36.1692 H              1 <1>                0.0000
@<TRIPOS>BOND
    1    1    2 1     
    2    1   11 1     
    3    1   12 1     
    4    1   13 1     
    5    2    3 ar    
    6    2    9 ar    
    7    3    4 ar    
    8    3   14 1     
    9    4    5 ar    
   10    4   15 1     
   11    5    6 1     
   12    5    8 ar    
   13    6    7 3     
   14    7   16 1     
   15    8    9 ar    
   16    8   17 1     
   17    9   10 1     
   18   10   18 1     
   19   10   19 1     
@<TRIPOS>SUBSTRUCTURE
      1 ****           1
@<TRIPOS>SET
DONOR_HYDROGENS      STATIC     ATOMS    <user>   **** ""
2 18 19
ATOM$RED        STATIC     ATOMS    COLORGROUP SYSTEM
2 18 19
@<TRIPOS>COMMENT
> <Gold.Version>
2022.2.0

> <Gold.Id.Protein>
1qkm|1qkm_protein|mol2

> <Gold.Protein.RotatedTorsions>
[  496  491  490  487 ] final   17.16 input  -89.99 | X-H torsion

> <Gold.Protein.ActiveResidues>
 MET295  LEU298  THR299  LEU301  ALA302  GLU305  TRP335  MET336  LEU339  MET340 
 GLY342  LEU343  ARG346  PHE356  ILE373  ILE376  PHE377  LEU380  LYS471  GLY472 
 MET473  HIS475  LEU476  LEU477  ASN478  MET479  VAL484  VAL487 

> <Gold.Protein.RotatedAtoms>
   36.2926   33.9562   42.3450 H   0  0  0  0  0  0  0  0  0  0  0  0  # atno 496  bound_to 491 

> <Gold.Score>
     Score     S(PLP)   S(hbond)     S(cho)   S(metal)  DE(clash)   DE(tors)     intcor
     35.50     -35.50       0.00       0.00       0.00       0.00       0.00       0.00

> <Gold.PLP.Fitness>
35.4979

> <Gold.PLP.PLP>
-35.4979

> <Gold.PLP.part.hbond>
0.0000

> <Gold.PLP.part.metal>
0.0000

> <Gold.PLP.part.buried>
-1.8947

> <Gold.PLP.part.nonpolar>
-34.3934

> <Gold.PLP.part.repulsive>
0.0000

> <Gold.PLP.ligand.clash>
0.0000

> <Gold.PLP.ligand.torsion>
0.0000

> <Gold.PLP.Chemscore.Hbond>
0.0000

> <Gold.PLP.Chemscore.CHOScore>
0.0000

> <Gold.PLP.Chemscore.Metal>
0.0000

> <Gold.PLP.Chemscore.Internal.Correction>
0.0000

