#       Name:                EN300-6461477_i001
#       Creating user name   aseyller
#       Creation time:       Fri Apr 21 13:40:49 2023


#       File generated by GOLD software.
#

@<TRIPOS>MOLECULE
EN300-6461477_i001|amine_1|mol2|454|dock3
    19    19     1
SMALL
USER_CHARGES


@<TRIPOS>ATOM
      1 C1          25.5000  37.5965  39.4062 C.3            1 <1>                0.0000
      2 C2          26.8660  36.9736  39.2757 C.ar           1 <1>                0.0000
      3 C3          27.6613  37.2787  38.1871 C.ar           1 <1>                0.0000
      4 C4          28.9133  36.7123  38.0609 C.ar           1 <1>                0.0000
      5 C5          29.3808  35.8279  39.0346 C.ar           1 <1>                0.0000
      6 C6          30.6798  35.2392  38.9060 C.1            1 <1>                0.0000
      7 C7          31.7448  34.7566  38.8005 C.1            1 <1>                0.0000
      8 C8          28.5791  35.5199  40.1326 C.ar           1 <1>                0.0000
      9 C9          27.3246  36.0987  40.2535 C.ar           1 <1>                0.0000
     10 N10         26.5175  35.7937  41.3522 N.pl3          1 <1>                0.0000
     11 H11         24.7622  36.9593  38.9186 H              1 <1>                0.0000
     12 H12         25.2481  37.7021  40.4613 H              1 <1>                0.0000
     13 H13         25.5016  38.5783  38.9328 H              1 <1>                0.0000
     14 H14         27.3014  37.9625  37.4325 H              1 <1>                0.0000
     15 H15         29.5315  36.9530  37.2087 H              1 <1>                0.0000
     16 H16         32.6974  34.3249  38.7061 H              1 <1>                0.0000
     17 H17         28.9356  34.8363  40.8890 H              1 <1>                0.0000
     18 H18         25.6370  36.1926  41.4328 H              1 <1>                0.0000
     19 H19         26.8377  35.1830  42.0344 H              1 <1>                0.0000
@<TRIPOS>BOND
    1    1    2 1     
    2    1   11 1     
    3    1   12 1     
    4    1   13 1     
    5    2    3 ar    
    6    2    9 ar    
    7    3    4 ar    
    8    3   14 1     
    9    4    5 ar    
   10    4   15 1     
   11    5    6 1     
   12    5    8 ar    
   13    6    7 3     
   14    7   16 1     
   15    8    9 ar    
   16    8   17 1     
   17    9   10 1     
   18   10   18 1     
   19   10   19 1     
@<TRIPOS>SUBSTRUCTURE
      1 ****           1
@<TRIPOS>SET
DONOR_HYDROGENS      STATIC     ATOMS    <user>   **** ""
2 18 19
ATOM$RED        STATIC     ATOMS    COLORGROUP SYSTEM
2 18 19
@<TRIPOS>COMMENT
> <Gold.Version>
2022.2.0

> <Gold.Id.Protein>
1qkm|1qkm_protein|mol2

> <Gold.Protein.RotatedTorsions>
[  496  491  490  487 ] final  116.49 input  -89.99 | X-H torsion

> <Gold.Protein.ActiveResidues>
 MET295  LEU298  THR299  LEU301  ALA302  GLU305  TRP335  MET336  LEU339  MET340 
 GLY342  LEU343  ARG346  PHE356  ILE373  ILE376  PHE377  LEU380  LYS471  GLY472 
 MET473  HIS475  LEU476  LEU477  ASN478  MET479  VAL484  VAL487 

> <Gold.Protein.RotatedAtoms>
   37.0529   32.9399   41.6694 H   0  0  0  0  0  0  0  0  0  0  0  0  # atno 496  bound_to 491 

> <Gold.Score>
     Score     S(PLP)   S(hbond)     S(cho)   S(metal)  DE(clash)   DE(tors)     intcor
     39.11     -37.10       0.67       0.00       0.00       0.00       0.00       0.00

> <Gold.PLP.Fitness>
39.1133

> <Gold.PLP.PLP>
-37.0973

> <Gold.PLP.part.hbond>
-1.0000

> <Gold.PLP.part.metal>
0.0000

> <Gold.PLP.part.buried>
-2.4544

> <Gold.PLP.part.nonpolar>
-32.9651

> <Gold.PLP.part.repulsive>
0.0317

> <Gold.PLP.ligand.clash>
0.0000

> <Gold.PLP.ligand.torsion>
0.0000

> <Gold.PLP.Chemscore.Hbond>
0.6720

> <Gold.PLP.Chemscore.CHOScore>
0.0000

> <Gold.PLP.Chemscore.Metal>
0.0000

> <Gold.Chemscore.Hbonds>
donor molecule, donor type, donor heavy atom, donor atom, acceptor molecule, acceptor atom, score
      L1  H    10    19       P1   582  0.67

> <Gold.PLP.Chemscore.Internal.Correction>
0.0000

