#       Name:                EN300-6461477_i001
#       Creating user name   aseyller
#       Creation time:       Fri Apr 21 13:40:48 2023


#       File generated by GOLD software.
#

@<TRIPOS>MOLECULE
EN300-6461477_i001|amine_1|mol2|454|dock1
    19    19     1
SMALL
USER_CHARGES


@<TRIPOS>ATOM
      1 C1          26.3802  36.0952  40.8967 C.3            1 <1>                0.0000
      2 C2          27.2846  36.6537  39.8284 C.ar           1 <1>                0.0000
      3 C3          26.7395  37.2267  38.6946 C.ar           1 <1>                0.0000
      4 C4          27.5613  37.7403  37.7122 C.ar           1 <1>                0.0000
      5 C5          28.9481  37.6821  37.8612 C.ar           1 <1>                0.0000
      6 C6          29.8029  38.2147  36.8432 C.1            1 <1>                0.0000
      7 C7          30.5036  38.6515  36.0086 C.1            1 <1>                0.0000
      8 C8          29.4982  37.1043  39.0043 C.ar           1 <1>                0.0000
      9 C9          28.6639  36.5961  39.9888 C.ar           1 <1>                0.0000
     10 N10         29.2102  36.0165  41.1365 N.pl3          1 <1>                0.0000
     11 H11         26.1742  35.0458  40.6861 H              1 <1>                0.0000
     12 H12         26.8681  36.1819  41.8675 H              1 <1>                0.0000
     13 H13         25.4444  36.6538  40.9090 H              1 <1>                0.0000
     14 H14         25.6669  37.2724  38.5772 H              1 <1>                0.0000
     15 H15         27.1316  38.1868  36.8277 H              1 <1>                0.0000
     16 H16         31.1304  39.0420  35.2622 H              1 <1>                0.0000
     17 H17         30.5704  37.0566  39.1250 H              1 <1>                0.0000
     18 H18         28.6268  35.6541  41.8216 H              1 <1>                0.0000
     19 H19         30.1729  35.9764  41.2483 H              1 <1>                0.0000
@<TRIPOS>BOND
    1    1    2 1     
    2    1   11 1     
    3    1   12 1     
    4    1   13 1     
    5    2    3 ar    
    6    2    9 ar    
    7    3    4 ar    
    8    3   14 1     
    9    4    5 ar    
   10    4   15 1     
   11    5    6 1     
   12    5    8 ar    
   13    6    7 3     
   14    7   16 1     
   15    8    9 ar    
   16    8   17 1     
   17    9   10 1     
   18   10   18 1     
   19   10   19 1     
@<TRIPOS>SUBSTRUCTURE
      1 ****           1
@<TRIPOS>SET
DONOR_HYDROGENS      STATIC     ATOMS    <user>   **** ""
2 18 19
ATOM$RED        STATIC     ATOMS    COLORGROUP SYSTEM
2 18 19
@<TRIPOS>COMMENT
> <Gold.Version>
2022.2.0

> <Gold.Id.Protein>
1qkm|1qkm_protein|mol2

> <Gold.Protein.RotatedTorsions>
[  496  491  490  487 ] final -136.89 input  -89.99 | X-H torsion

> <Gold.Protein.ActiveResidues>
 MET295  LEU298  THR299  LEU301  ALA302  GLU305  TRP335  MET336  LEU339  MET340 
 GLY342  LEU343  ARG346  PHE356  ILE373  ILE376  PHE377  LEU380  LYS471  GLY472 
 MET473  HIS475  LEU476  LEU477  ASN478  MET479  VAL484  VAL487 

> <Gold.Protein.RotatedAtoms>
   37.1535   34.1206   40.7292 H   0  0  0  0  0  0  0  0  0  0  0  0  # atno 496  bound_to 491 

> <Gold.Score>
     Score     S(PLP)   S(hbond)     S(cho)   S(metal)  DE(clash)   DE(tors)     intcor
     39.26     -36.26       1.00       0.00       0.00       0.00       0.00       0.00

> <Gold.PLP.Fitness>
39.2601

> <Gold.PLP.PLP>
-36.2601

> <Gold.PLP.part.hbond>
-1.0000

> <Gold.PLP.part.metal>
0.0000

> <Gold.PLP.part.buried>
-2.0952

> <Gold.PLP.part.nonpolar>
-33.5456

> <Gold.PLP.part.repulsive>
0.0619

> <Gold.PLP.ligand.clash>
0.0000

> <Gold.PLP.ligand.torsion>
0.0000

> <Gold.PLP.Chemscore.Hbond>
1.0000

> <Gold.PLP.Chemscore.CHOScore>
0.0000

> <Gold.PLP.Chemscore.Metal>
0.0000

> <Gold.Chemscore.Hbonds>
donor molecule, donor type, donor heavy atom, donor atom, acceptor molecule, acceptor atom, score
      L1  H    10    19       P1   470  1.00

> <Gold.PLP.Chemscore.Internal.Correction>
0.0000

