#       Name:                EN300-6461477_i001
#       Creating user name   aseyller
#       Creation time:       Fri Apr 21 13:40:50 2023


#       File generated by GOLD software.
#

@<TRIPOS>MOLECULE
EN300-6461477_i001|amine_1|mol2|454|dock9
    19    19     1
SMALL
USER_CHARGES


@<TRIPOS>ATOM
      1 C1          26.6848  36.3516  39.9250 C.3            1 <1>                0.0000
      2 C2          27.8170  36.8288  39.0524 C.ar           1 <1>                0.0000
      3 C3          27.5456  37.5505  37.9050 C.ar           1 <1>                0.0000
      4 C4          28.5771  37.9908  37.1011 C.ar           1 <1>                0.0000
      5 C5          29.9000  37.7080  37.4453 C.ar           1 <1>                0.0000
      6 C6          30.9721  38.1643  36.6128 C.1            1 <1>                0.0000
      7 C7          31.8510  38.5384  35.9302 C.1            1 <1>                0.0000
      8 C8          30.1742  36.9804  38.6023 C.ar           1 <1>                0.0000
      9 C9          29.1310  36.5470  39.4069 C.ar           1 <1>                0.0000
     10 N10         29.4004  35.8179  40.5676 N.pl3          1 <1>                0.0000
     11 H11         26.3653  35.3626  39.5968 H              1 <1>                0.0000
     12 H12         27.0212  36.2997  40.9604 H              1 <1>                0.0000
     13 H13         25.8492  37.0473  39.8488 H              1 <1>                0.0000
     14 H14         26.5227  37.7700  37.6367 H              1 <1>                0.0000
     15 H15         28.3608  38.5540  36.2053 H              1 <1>                0.0000
     16 H16         32.6370  38.8730  35.3197 H              1 <1>                0.0000
     17 H17         31.1958  36.7587  38.8736 H              1 <1>                0.0000
     18 H18         28.6704  35.5082  41.1263 H              1 <1>                0.0000
     19 H19         30.3176  35.6213  40.8148 H              1 <1>                0.0000
@<TRIPOS>BOND
    1    1    2 1     
    2    1   11 1     
    3    1   12 1     
    4    1   13 1     
    5    2    3 ar    
    6    2    9 ar    
    7    3    4 ar    
    8    3   14 1     
    9    4    5 ar    
   10    4   15 1     
   11    5    6 1     
   12    5    8 ar    
   13    6    7 3     
   14    7   16 1     
   15    8    9 ar    
   16    8   17 1     
   17    9   10 1     
   18   10   18 1     
   19   10   19 1     
@<TRIPOS>SUBSTRUCTURE
      1 ****           1
@<TRIPOS>SET
DONOR_HYDROGENS      STATIC     ATOMS    <user>   **** ""
2 18 19
ATOM$RED        STATIC     ATOMS    COLORGROUP SYSTEM
2 18 19
@<TRIPOS>COMMENT
> <Gold.Version>
2022.2.0

> <Gold.Id.Protein>
1qkm|1qkm_protein|mol2

> <Gold.Protein.RotatedTorsions>
[  496  491  490  487 ] final -105.14 input  -89.99 | X-H torsion

> <Gold.Protein.ActiveResidues>
 MET295  LEU298  THR299  LEU301  ALA302  GLU305  TRP335  MET336  LEU339  MET340 
 GLY342  LEU343  ARG346  PHE356  ILE373  ILE376  PHE377  LEU380  LYS471  GLY472 
 MET473  HIS475  LEU476  LEU477  ASN478  MET479  VAL484  VAL487 

> <Gold.Protein.RotatedAtoms>
   36.8966   34.5268   40.9169 H   0  0  0  0  0  0  0  0  0  0  0  0  # atno 496  bound_to 491 

> <Gold.Score>
     Score     S(PLP)   S(hbond)     S(cho)   S(metal)  DE(clash)   DE(tors)     intcor
     35.38     -32.38       1.00       0.00       0.00       0.00       0.00       0.00

> <Gold.PLP.Fitness>
35.3772

> <Gold.PLP.PLP>
-32.3772

> <Gold.PLP.part.hbond>
-1.0000

> <Gold.PLP.part.metal>
0.0000

> <Gold.PLP.part.buried>
-1.8522

> <Gold.PLP.part.nonpolar>
-29.9846

> <Gold.PLP.part.repulsive>
0.0571

> <Gold.PLP.ligand.clash>
0.0000

> <Gold.PLP.ligand.torsion>
0.0000

> <Gold.PLP.Chemscore.Hbond>
1.0000

> <Gold.PLP.Chemscore.CHOScore>
0.0000

> <Gold.PLP.Chemscore.Metal>
0.0000

> <Gold.Chemscore.Hbonds>
donor molecule, donor type, donor heavy atom, donor atom, acceptor molecule, acceptor atom, score
      L1  H    10    19       P1   470  1.00

> <Gold.PLP.Chemscore.Internal.Correction>
0.0000

