#       Name:                EN300-6461477_i001
#       Creating user name   aseyller
#       Creation time:       Fri Apr 21 13:40:49 2023


#       File generated by GOLD software.
#

@<TRIPOS>MOLECULE
EN300-6461477_i001|amine_1|mol2|454|dock4
    19    19     1
SMALL
USER_CHARGES


@<TRIPOS>ATOM
      1 C1          26.3599  36.1519  40.6299 C.3            1 <1>                0.0000
      2 C2          27.5657  36.4790  39.7871 C.ar           1 <1>                0.0000
      3 C3          27.3981  36.9669  38.5047 C.ar           1 <1>                0.0000
      4 C4          28.4975  37.2687  37.7272 C.ar           1 <1>                0.0000
      5 C5          29.7843  37.0817  38.2350 C.ar           1 <1>                0.0000
      6 C6          30.9266  37.3946  37.4302 C.1            1 <1>                0.0000
      7 C7          31.8632  37.6510  36.7703 C.1            1 <1>                0.0000
      8 C8          29.9537  36.5897  39.5283 C.ar           1 <1>                0.0000
      9 C9          28.8426  36.2947  40.3040 C.ar           1 <1>                0.0000
     10 N10         29.0070  35.8018  41.6008 N.pl3          1 <1>                0.0000
     11 H11         26.0741  35.1127  40.4671 H              1 <1>                0.0000
     12 H12         26.6006  36.3018  41.6822 H              1 <1>                0.0000
     13 H13         25.5329  36.8043  40.3496 H              1 <1>                0.0000
     14 H14         26.4035  37.1120  38.1098 H              1 <1>                0.0000
     15 H15         28.3624  37.6494  36.7256 H              1 <1>                0.0000
     16 H16         32.7008  37.8804  36.1801 H              1 <1>                0.0000
     17 H17         30.9469  36.4430  39.9264 H              1 <1>                0.0000
     18 H18         28.2298  35.5882  42.1406 H              1 <1>                0.0000
     19 H19         29.8982  35.6732  41.9613 H              1 <1>                0.0000
@<TRIPOS>BOND
    1    1    2 1     
    2    1   11 1     
    3    1   12 1     
    4    1   13 1     
    5    2    3 ar    
    6    2    9 ar    
    7    3    4 ar    
    8    3   14 1     
    9    4    5 ar    
   10    4   15 1     
   11    5    6 1     
   12    5    8 ar    
   13    6    7 3     
   14    7   16 1     
   15    8    9 ar    
   16    8   17 1     
   17    9   10 1     
   18   10   18 1     
   19   10   19 1     
@<TRIPOS>SUBSTRUCTURE
      1 ****           1
@<TRIPOS>SET
DONOR_HYDROGENS      STATIC     ATOMS    <user>   **** ""
2 18 19
ATOM$RED        STATIC     ATOMS    COLORGROUP SYSTEM
2 18 19
@<TRIPOS>COMMENT
> <Gold.Version>
2022.2.0

> <Gold.Id.Protein>
1qkm|1qkm_protein|mol2

> <Gold.Protein.RotatedTorsions>
[  496  491  490  487 ] final    2.78 input  -89.99 | X-H torsion

> <Gold.Protein.ActiveResidues>
 MET295  LEU298  THR299  LEU301  ALA302  GLU305  TRP335  MET336  LEU339  MET340 
 GLY342  LEU343  ARG346  PHE356  ILE373  ILE376  PHE377  LEU380  LYS471  GLY472 
 MET473  HIS475  LEU476  LEU477  ASN478  MET479  VAL484  VAL487 

> <Gold.Protein.RotatedAtoms>
   36.2619   34.1737   42.2581 H   0  0  0  0  0  0  0  0  0  0  0  0  # atno 496  bound_to 491 

> <Gold.Score>
     Score     S(PLP)   S(hbond)     S(cho)   S(metal)  DE(clash)   DE(tors)     intcor
     37.07     -34.07       1.00       0.00       0.00       0.00       0.00       0.00

> <Gold.PLP.Fitness>
37.0709

> <Gold.PLP.PLP>
-34.0709

> <Gold.PLP.part.hbond>
-1.0000

> <Gold.PLP.part.metal>
0.0000

> <Gold.PLP.part.buried>
-2.5892

> <Gold.PLP.part.nonpolar>
-31.2880

> <Gold.PLP.part.repulsive>
0.0825

> <Gold.PLP.ligand.clash>
0.0000

> <Gold.PLP.ligand.torsion>
0.0000

> <Gold.PLP.Chemscore.Hbond>
1.0000

> <Gold.PLP.Chemscore.CHOScore>
0.0000

> <Gold.PLP.Chemscore.Metal>
0.0000

> <Gold.Chemscore.Hbonds>
donor molecule, donor type, donor heavy atom, donor atom, acceptor molecule, acceptor atom, score
      L1  H    10    19       P1   470  1.00

> <Gold.PLP.Chemscore.Internal.Correction>
0.0000

