#       Name:                EN300-6461477_i001
#       Creating user name   aseyller
#       Creation time:       Fri Apr 21 13:40:52 2023


#       File generated by GOLD software.
#

@<TRIPOS>MOLECULE
EN300-6461477_i001|amine_1|mol2|454|dock18
    19    19     1
SMALL
USER_CHARGES


@<TRIPOS>ATOM
      1 C1          31.5223  37.6556  35.3749 C.3            1 <1>                0.0000
      2 C2          30.8682  37.3283  36.6926 C.ar           1 <1>                0.0000
      3 C3          29.6485  37.8930  37.0154 C.ar           1 <1>                0.0000
      4 C4          29.0435  37.5978  38.2201 C.ar           1 <1>                0.0000
      5 C5          29.6632  36.7264  39.1175 C.ar           1 <1>                0.0000
      6 C6          29.0371  36.4184  40.3680 C.1            1 <1>                0.0000
      7 C7          28.5238  36.1660  41.3932 C.1            1 <1>                0.0000
      8 C8          30.8932  36.1568  38.7923 C.ar           1 <1>                0.0000
      9 C9          31.4906  36.4551  37.5767 C.ar           1 <1>                0.0000
     10 N10         32.7230  35.8864  37.2459 N.pl3          1 <1>                0.0000
     11 H11         32.1635  38.5289  35.4947 H              1 <1>                0.0000
     12 H12         32.1219  36.8070  35.0462 H              1 <1>                0.0000
     13 H13         30.7545  37.8680  34.6310 H              1 <1>                0.0000
     14 H14         29.1675  38.5676  36.3227 H              1 <1>                0.0000
     15 H15         28.0907  38.0413  38.4687 H              1 <1>                0.0000
     16 H16         28.0647  35.9401  42.3101 H              1 <1>                0.0000
     17 H17         31.3772  35.4819  39.4828 H              1 <1>                0.0000
     18 H18         33.1445  36.1010  36.3990 H              1 <1>                0.0000
     19 H19         33.1572  35.2771  37.8631 H              1 <1>                0.0000
@<TRIPOS>BOND
    1    1    2 1     
    2    1   11 1     
    3    1   12 1     
    4    1   13 1     
    5    2    3 ar    
    6    2    9 ar    
    7    3    4 ar    
    8    3   14 1     
    9    4    5 ar    
   10    4   15 1     
   11    5    6 1     
   12    5    8 ar    
   13    6    7 3     
   14    7   16 1     
   15    8    9 ar    
   16    8   17 1     
   17    9   10 1     
   18   10   18 1     
   19   10   19 1     
@<TRIPOS>SUBSTRUCTURE
      1 ****           1
@<TRIPOS>SET
DONOR_HYDROGENS      STATIC     ATOMS    <user>   **** ""
2 18 19
ATOM$RED        STATIC     ATOMS    COLORGROUP SYSTEM
2 18 19
@<TRIPOS>COMMENT
> <Gold.Version>
2022.2.0

> <Gold.Id.Protein>
1qkm|1qkm_protein|mol2

> <Gold.Protein.RotatedTorsions>
[  496  491  490  487 ] final   63.12 input  -89.99 | X-H torsion

> <Gold.Protein.ActiveResidues>
 MET295  LEU298  THR299  LEU301  ALA302  GLU305  TRP335  MET336  LEU339  MET340 
 GLY342  LEU343  ARG346  PHE356  ILE373  ILE376  PHE377  LEU380  LYS471  GLY472 
 MET473  HIS475  LEU476  LEU477  ASN478  MET479  VAL484  VAL487 

> <Gold.Protein.RotatedAtoms>
   36.5776   33.2801   42.2826 H   0  0  0  0  0  0  0  0  0  0  0  0  # atno 496  bound_to 491 

> <Gold.Score>
     Score     S(PLP)   S(hbond)     S(cho)   S(metal)  DE(clash)   DE(tors)     intcor
     34.50     -34.50       0.00       0.00       0.00       0.00       0.00       0.00

> <Gold.PLP.Fitness>
34.5002

> <Gold.PLP.PLP>
-34.5002

> <Gold.PLP.part.hbond>
0.0000

> <Gold.PLP.part.metal>
0.0000

> <Gold.PLP.part.buried>
-2.2027

> <Gold.PLP.part.nonpolar>
-32.3638

> <Gold.PLP.part.repulsive>
0.0137

> <Gold.PLP.ligand.clash>
0.0000

> <Gold.PLP.ligand.torsion>
0.0000

> <Gold.PLP.Chemscore.Hbond>
0.0000

> <Gold.PLP.Chemscore.CHOScore>
0.0000

> <Gold.PLP.Chemscore.Metal>
0.0000

> <Gold.PLP.Chemscore.Internal.Correction>
0.0000

