#       Name:                EN300-157046_i001
#       Creating user name   aseyller
#       Creation time:       Fri Apr 21 12:30:47 2023


#       File generated by GOLD software.
#

@<TRIPOS>MOLECULE
EN300-157046_i001|amine_1|mol2|76|dock10
    15    15     1
SMALL
USER_CHARGES


@<TRIPOS>ATOM
      1 C1          29.7388  36.9602  38.7892 C.3            1 <1>                0.0000
      2 C2          28.2390  37.1063  38.7976 C.2            1 <1>                0.0000
      3 N3          27.5970  37.5654  37.7686 N.2            1 <1>                0.0000
      4 S4          25.9458  37.5826  38.1499 S.3            1 <1>                0.0000
      5 C5          26.1213  36.9537  39.7413 C.2            1 <1>                0.0000
      6 N6          25.1146  36.6996  40.6613 N.pl3          1 <1>                0.0000
      7 C7          27.4807  36.7496  39.9064 C.2            1 <1>                0.0000
      8 C8          28.0532  36.2274  41.1106 C.1            1 <1>                0.0000
      9 C9          28.5224  35.7993  42.0979 C.1            1 <1>                0.0000
     10 H10         30.1956  37.8800  39.1544 H              1 <1>                0.0000
     11 H11         30.0267  36.1305  39.4348 H              1 <1>                0.0000
     12 H12         30.0791  36.7644  37.7723 H              1 <1>                0.0000
     13 H13         28.9422  35.4163  42.9809 H              1 <1>                0.0000
     14 H14         24.1899  36.8797  40.4305 H              1 <1>                0.0000
     15 H15         25.3355  36.3418  41.5354 H              1 <1>                0.0000
@<TRIPOS>BOND
    1    1    2 1     
    2    1   10 1     
    3    1   11 1     
    4    1   12 1     
    5    2    3 2     
    6    2    7 1     
    7    3    4 1     
    8    4    5 1     
    9    5    6 1     
   10    5    7 2     
   11    6   14 1     
   12    6   15 1     
   13    7    8 1     
   14    8    9 3     
   15    9   13 1     
@<TRIPOS>SUBSTRUCTURE
      1 ****           1
@<TRIPOS>SET
DONOR_HYDROGENS      STATIC     ATOMS    <user>   **** ""
2 14 15
ATOM$RED        STATIC     ATOMS    COLORGROUP SYSTEM
2 14 15
@<TRIPOS>COMMENT
> <Gold.Version>
2022.2.0

> <Gold.Id.Protein>
1qkm|1qkm_protein|mol2

> <Gold.Protein.RotatedTorsions>
[  496  491  490  487 ] final   75.94 input  -89.99 | X-H torsion

> <Gold.Protein.ActiveResidues>
 MET295  LEU298  THR299  LEU301  ALA302  GLU305  TRP335  MET336  LEU339  MET340 
 GLY342  LEU343  ARG346  PHE356  ILE373  ILE376  PHE377  LEU380  LYS471  GLY472 
 MET473  HIS475  LEU476  LEU477  ASN478  MET479  VAL484  VAL487 

> <Gold.Protein.RotatedAtoms>
   36.6908   33.1377   42.1763 H   0  0  0  0  0  0  0  0  0  0  0  0  # atno 496  bound_to 491 

> <Gold.Score>
     Score     S(PLP)   S(hbond)     S(cho)   S(metal)  DE(clash)   DE(tors)     intcor
     32.30     -29.93       0.79       0.00       0.00       0.00       0.00       0.00

> <Gold.PLP.Fitness>
32.3046

> <Gold.PLP.PLP>
-29.9256

> <Gold.PLP.part.hbond>
-1.0000

> <Gold.PLP.part.metal>
0.0000

> <Gold.PLP.part.buried>
-3.0476

> <Gold.PLP.part.nonpolar>
-26.9481

> <Gold.PLP.part.repulsive>
0.1571

> <Gold.PLP.ligand.clash>
0.0000

> <Gold.PLP.ligand.torsion>
0.0000

> <Gold.PLP.Chemscore.Hbond>
0.7930

> <Gold.PLP.Chemscore.CHOScore>
0.0000

> <Gold.PLP.Chemscore.Metal>
0.0000

> <Gold.Chemscore.Hbonds>
donor molecule, donor type, donor heavy atom, donor atom, acceptor molecule, acceptor atom, score
      L1  H     6    14       P1  1131  0.79

> <Gold.PLP.Chemscore.Internal.Correction>
0.0000

