#       Name:                EN300-157046_i001
#       Creating user name   aseyller
#       Creation time:       Fri Apr 21 12:30:48 2023


#       File generated by GOLD software.
#

@<TRIPOS>MOLECULE
EN300-157046_i001|amine_1|mol2|76|dock17
    15    15     1
SMALL
USER_CHARGES


@<TRIPOS>ATOM
      1 C1          27.0810  37.9996  37.5919 C.3            1 <1>                0.0000
      2 C2          27.1186  37.2591  38.9038 C.2            1 <1>                0.0000
      3 N3          26.0326  36.9776  39.5545 N.2            1 <1>                0.0000
      4 S4          26.4712  36.1489  40.9662 S.3            1 <1>                0.0000
      5 C5          28.1664  36.1806  40.6751 C.2            1 <1>                0.0000
      6 N6          29.1676  35.6514  41.4762 N.pl3          1 <1>                0.0000
      7 C7          28.3181  36.8418  39.4682 C.2            1 <1>                0.0000
      8 C8          29.5931  37.0808  38.8617 C.1            1 <1>                0.0000
      9 C9          30.6384  37.2767  38.3645 C.1            1 <1>                0.0000
     10 H10         27.1418  39.0719  37.7780 H              1 <1>                0.0000
     11 H11         27.9247  37.6895  36.9754 H              1 <1>                0.0000
     12 H12         26.1494  37.7731  37.0734 H              1 <1>                0.0000
     13 H13         31.5733  37.4520  37.9198 H              1 <1>                0.0000
     14 H14         28.9391  35.2025  42.3051 H              1 <1>                0.0000
     15 H15         30.0962  35.7303  41.2074 H              1 <1>                0.0000
@<TRIPOS>BOND
    1    1    2 1     
    2    1   10 1     
    3    1   11 1     
    4    1   12 1     
    5    2    3 2     
    6    2    7 1     
    7    3    4 1     
    8    4    5 1     
    9    5    6 1     
   10    5    7 2     
   11    6   14 1     
   12    6   15 1     
   13    7    8 1     
   14    8    9 3     
   15    9   13 1     
@<TRIPOS>SUBSTRUCTURE
      1 ****           1
@<TRIPOS>SET
DONOR_HYDROGENS      STATIC     ATOMS    <user>   **** ""
2 14 15
ATOM$RED        STATIC     ATOMS    COLORGROUP SYSTEM
2 14 15
@<TRIPOS>COMMENT
> <Gold.Version>
2022.2.0

> <Gold.Id.Protein>
1qkm|1qkm_protein|mol2

> <Gold.Protein.RotatedTorsions>
[  496  491  490  487 ] final  -89.09 input  -89.99 | X-H torsion

> <Gold.Protein.ActiveResidues>
 MET295  LEU298  THR299  LEU301  ALA302  GLU305  TRP335  MET336  LEU339  MET340 
 GLY342  LEU343  ARG346  PHE356  ILE373  ILE376  PHE377  LEU380  LYS471  GLY472 
 MET473  HIS475  LEU476  LEU477  ASN478  MET479  VAL484  VAL487 

> <Gold.Protein.RotatedAtoms>
   36.7489   34.6592   41.0902 H   0  0  0  0  0  0  0  0  0  0  0  0  # atno 496  bound_to 491 

> <Gold.Score>
     Score     S(PLP)   S(hbond)     S(cho)   S(metal)  DE(clash)   DE(tors)     intcor
     30.52     -28.60       0.64       0.00       0.00       0.00       0.00       0.00

> <Gold.PLP.Fitness>
30.5195

> <Gold.PLP.PLP>
-28.5995

> <Gold.PLP.part.hbond>
-1.0000

> <Gold.PLP.part.metal>
0.0000

> <Gold.PLP.part.buried>
-3.3419

> <Gold.PLP.part.nonpolar>
-24.8656

> <Gold.PLP.part.repulsive>
0.1637

> <Gold.PLP.ligand.clash>
0.0000

> <Gold.PLP.ligand.torsion>
0.0000

> <Gold.PLP.Chemscore.Hbond>
0.6400

> <Gold.PLP.Chemscore.CHOScore>
0.0000

> <Gold.PLP.Chemscore.Metal>
0.0000

> <Gold.Chemscore.Hbonds>
donor molecule, donor type, donor heavy atom, donor atom, acceptor molecule, acceptor atom, score
      L1  H     6    15       P1   470  0.64

> <Gold.PLP.Chemscore.Internal.Correction>
0.0000

