#       Name:                EN300-157046_i001
#       Creating user name   aseyller
#       Creation time:       Fri Apr 21 12:30:47 2023


#       File generated by GOLD software.
#

@<TRIPOS>MOLECULE
EN300-157046_i001|amine_1|mol2|76|dock12
    15    15     1
SMALL
USER_CHARGES


@<TRIPOS>ATOM
      1 C1          25.8057  36.4238  38.7987 C.3            1 <1>                0.0000
      2 C2          27.1903  36.2505  39.3676 C.2            1 <1>                0.0000
      3 N3          28.1611  35.7710  38.6538 N.2            1 <1>                0.0000
      4 S4          29.5493  35.7270  39.6249 S.3            1 <1>                0.0000
      5 C5          28.8042  36.3725  41.0346 C.2            1 <1>                0.0000
      6 N6          29.3988  36.6160  42.2640 N.pl3          1 <1>                0.0000
      7 C7          27.4861  36.6027  40.6791 C.2            1 <1>                0.0000
      8 C8          26.5155  37.1455  41.5813 C.1            1 <1>                0.0000
      9 C9          25.7198  37.5904  42.3210 C.1            1 <1>                0.0000
     10 H10         25.2271  35.5156  38.9676 H              1 <1>                0.0000
     11 H11         25.3140  37.2641  39.2890 H              1 <1>                0.0000
     12 H12         25.8743  36.6171  37.7282 H              1 <1>                0.0000
     13 H13         25.0082  37.9884  42.9826 H              1 <1>                0.0000
     14 H14         30.3389  36.4171  42.3960 H              1 <1>                0.0000
     15 H15         28.8744  36.9852  42.9918 H              1 <1>                0.0000
@<TRIPOS>BOND
    1    1    2 1     
    2    1   10 1     
    3    1   11 1     
    4    1   12 1     
    5    2    3 2     
    6    2    7 1     
    7    3    4 1     
    8    4    5 1     
    9    5    6 1     
   10    5    7 2     
   11    6   14 1     
   12    6   15 1     
   13    7    8 1     
   14    8    9 3     
   15    9   13 1     
@<TRIPOS>SUBSTRUCTURE
      1 ****           1
@<TRIPOS>SET
DONOR_HYDROGENS      STATIC     ATOMS    <user>   **** ""
2 14 15
ATOM$RED        STATIC     ATOMS    COLORGROUP SYSTEM
2 14 15
@<TRIPOS>COMMENT
> <Gold.Version>
2022.2.0

> <Gold.Id.Protein>
1qkm|1qkm_protein|mol2

> <Gold.Protein.RotatedTorsions>
[  496  491  490  487 ] final  111.46 input  -89.99 | X-H torsion

> <Gold.Protein.ActiveResidues>
 MET295  LEU298  THR299  LEU301  ALA302  GLU305  TRP335  MET336  LEU339  MET340 
 GLY342  LEU343  ARG346  PHE356  ILE373  ILE376  PHE377  LEU380  LYS471  GLY472 
 MET473  HIS475  LEU476  LEU477  ASN478  MET479  VAL484  VAL487 

> <Gold.Protein.RotatedAtoms>
   37.0116   32.9409   41.7411 H   0  0  0  0  0  0  0  0  0  0  0  0  # atno 496  bound_to 491 

> <Gold.Score>
     Score     S(PLP)   S(hbond)     S(cho)   S(metal)  DE(clash)   DE(tors)     intcor
     29.04     -26.16       0.96       0.00       0.00       0.00       0.00       0.00

> <Gold.PLP.Fitness>
29.0390

> <Gold.PLP.PLP>
-26.1590

> <Gold.PLP.part.hbond>
-1.0000

> <Gold.PLP.part.metal>
0.0000

> <Gold.PLP.part.buried>
1.8023

> <Gold.PLP.part.nonpolar>
-27.8736

> <Gold.PLP.part.repulsive>
0.0798

> <Gold.PLP.ligand.clash>
0.0000

> <Gold.PLP.ligand.torsion>
0.0000

> <Gold.PLP.Chemscore.Hbond>
0.9600

> <Gold.PLP.Chemscore.CHOScore>
0.0000

> <Gold.PLP.Chemscore.Metal>
0.0000

> <Gold.Chemscore.Hbonds>
donor molecule, donor type, donor heavy atom, donor atom, acceptor molecule, acceptor atom, score
      L1  H     6    14       P1   470  0.96

> <Gold.PLP.Chemscore.Internal.Correction>
0.0000

