#       Name:                EN300-157046_i001
#       Creating user name   aseyller
#       Creation time:       Fri Apr 21 12:30:47 2023


#       File generated by GOLD software.
#

@<TRIPOS>MOLECULE
EN300-157046_i001|amine_1|mol2|76|dock8
    15    15     1
SMALL
USER_CHARGES


@<TRIPOS>ATOM
      1 C1          26.1712  38.1194  37.8780 C.3            1 <1>                0.0000
      2 C2          26.9830  37.2596  38.8123 C.2            1 <1>                0.0000
      3 N3          26.4214  36.5549  39.7449 N.2            1 <1>                0.0000
      4 S4          27.6427  35.7292  40.5808 S.3            1 <1>                0.0000
      5 C5          28.9497  36.3488  39.6497 C.2            1 <1>                0.0000
      6 N6          30.2995  36.0693  39.8042 N.pl3          1 <1>                0.0000
      7 C7          28.3668  37.1815  38.7096 C.2            1 <1>                0.0000
      8 C8          29.1204  37.9017  37.7278 C.1            1 <1>                0.0000
      9 C9          29.7382  38.4923  36.9229 C.1            1 <1>                0.0000
     10 H10         26.0644  39.1173  38.3032 H              1 <1>                0.0000
     11 H11         26.6770  38.1871  36.9149 H              1 <1>                0.0000
     12 H12         25.1852  37.6756  37.7404 H              1 <1>                0.0000
     13 H13         30.2908  39.0204  36.2030 H              1 <1>                0.0000
     14 H14         30.5924  35.4619  40.5015 H              1 <1>                0.0000
     15 H15         30.9507  36.4812  39.2149 H              1 <1>                0.0000
@<TRIPOS>BOND
    1    1    2 1     
    2    1   10 1     
    3    1   11 1     
    4    1   12 1     
    5    2    3 2     
    6    2    7 1     
    7    3    4 1     
    8    4    5 1     
    9    5    6 1     
   10    5    7 2     
   11    6   14 1     
   12    6   15 1     
   13    7    8 1     
   14    8    9 3     
   15    9   13 1     
@<TRIPOS>SUBSTRUCTURE
      1 ****           1
@<TRIPOS>SET
DONOR_HYDROGENS      STATIC     ATOMS    <user>   **** ""
2 14 15
ATOM$RED        STATIC     ATOMS    COLORGROUP SYSTEM
2 14 15
@<TRIPOS>COMMENT
> <Gold.Version>
2022.2.0

> <Gold.Id.Protein>
1qkm|1qkm_protein|mol2

> <Gold.Protein.RotatedTorsions>
[  496  491  490  487 ] final -179.15 input  -89.99 | X-H torsion

> <Gold.Protein.ActiveResidues>
 MET295  LEU298  THR299  LEU301  ALA302  GLU305  TRP335  MET336  LEU339  MET340 
 GLY342  LEU343  ARG346  PHE356  ILE373  ILE376  PHE377  LEU380  LYS471  GLY472 
 MET473  HIS475  LEU476  LEU477  ASN478  MET479  VAL484  VAL487 

> <Gold.Protein.RotatedAtoms>
   37.3173   33.4737   40.8605 H   0  0  0  0  0  0  0  0  0  0  0  0  # atno 496  bound_to 491 

> <Gold.Score>
     Score     S(PLP)   S(hbond)     S(cho)   S(metal)  DE(clash)   DE(tors)     intcor
     29.54     -26.66       0.96       0.00       0.00       0.00       0.00       0.00

> <Gold.PLP.Fitness>
29.5388

> <Gold.PLP.PLP>
-26.6588

> <Gold.PLP.part.hbond>
-1.0000

> <Gold.PLP.part.metal>
0.0000

> <Gold.PLP.part.buried>
-2.3722

> <Gold.PLP.part.nonpolar>
-22.9770

> <Gold.PLP.part.repulsive>
0.1280

> <Gold.PLP.ligand.clash>
0.0000

> <Gold.PLP.ligand.torsion>
0.0000

> <Gold.PLP.Chemscore.Hbond>
0.9600

> <Gold.PLP.Chemscore.CHOScore>
0.0000

> <Gold.PLP.Chemscore.Metal>
0.0000

> <Gold.Chemscore.Hbonds>
donor molecule, donor type, donor heavy atom, donor atom, acceptor molecule, acceptor atom, score
      L1  H     6    14       P1   470  0.96

> <Gold.PLP.Chemscore.Internal.Correction>
0.0000

