#       Name:                EN300-157046_i001
#       Creating user name   aseyller
#       Creation time:       Fri Apr 21 12:30:46 2023


#       File generated by GOLD software.
#

@<TRIPOS>MOLECULE
EN300-157046_i001|amine_1|mol2|76|dock7
    15    15     1
SMALL
USER_CHARGES


@<TRIPOS>ATOM
      1 C1          26.6238  37.5462  38.0135 C.3            1 <1>                0.0000
      2 C2          27.7942  36.9986  38.7889 C.2            1 <1>                0.0000
      3 N3          28.9452  36.7972  38.2262 N.2            1 <1>                0.0000
      4 S4          29.9996  36.1831  39.4024 S.3            1 <1>                0.0000
      5 C5          28.8603  36.1966  40.6911 C.2            1 <1>                0.0000
      6 N6          29.0704  35.8007  42.0039 N.pl3          1 <1>                0.0000
      7 C7          27.6907  36.6921  40.1404 C.2            1 <1>                0.0000
      8 C8          26.4839  36.8650  40.8917 C.1            1 <1>                0.0000
      9 C9          25.4946  37.0067  41.5076 C.1            1 <1>                0.0000
     10 H10         26.0550  36.7217  37.5836 H              1 <1>                0.0000
     11 H11         25.9822  38.1207  38.6817 H              1 <1>                0.0000
     12 H12         26.9875  38.1923  37.2145 H              1 <1>                0.0000
     13 H13         24.6097  37.1335  42.0585 H              1 <1>                0.0000
     14 H14         29.9406  35.4711  42.2778 H              1 <1>                0.0000
     15 H15         28.3471  35.8535  42.6480 H              1 <1>                0.0000
@<TRIPOS>BOND
    1    1    2 1     
    2    1   10 1     
    3    1   11 1     
    4    1   12 1     
    5    2    3 2     
    6    2    7 1     
    7    3    4 1     
    8    4    5 1     
    9    5    6 1     
   10    5    7 2     
   11    6   14 1     
   12    6   15 1     
   13    7    8 1     
   14    8    9 3     
   15    9   13 1     
@<TRIPOS>SUBSTRUCTURE
      1 ****           1
@<TRIPOS>SET
DONOR_HYDROGENS      STATIC     ATOMS    <user>   **** ""
2 14 15
ATOM$RED        STATIC     ATOMS    COLORGROUP SYSTEM
2 14 15
@<TRIPOS>COMMENT
> <Gold.Version>
2022.2.0

> <Gold.Id.Protein>
1qkm|1qkm_protein|mol2

> <Gold.Protein.RotatedTorsions>
[  496  491  490  487 ] final   98.36 input  -89.99 | X-H torsion

> <Gold.Protein.ActiveResidues>
 MET295  LEU298  THR299  LEU301  ALA302  GLU305  TRP335  MET336  LEU339  MET340 
 GLY342  LEU343  ARG346  PHE356  ILE373  ILE376  PHE377  LEU380  LYS471  GLY472 
 MET473  HIS475  LEU476  LEU477  ASN478  MET479  VAL484  VAL487 

> <Gold.Protein.RotatedAtoms>
   36.8969   32.9759   41.9196 H   0  0  0  0  0  0  0  0  0  0  0  0  # atno 496  bound_to 491 

> <Gold.Score>
     Score     S(PLP)   S(hbond)     S(cho)   S(metal)  DE(clash)   DE(tors)     intcor
     34.64     -31.64       1.00       0.00       0.00       0.00       0.00       0.00

> <Gold.PLP.Fitness>
34.6355

> <Gold.PLP.PLP>
-31.6355

> <Gold.PLP.part.hbond>
-1.0000

> <Gold.PLP.part.metal>
0.0000

> <Gold.PLP.part.buried>
-2.3122

> <Gold.PLP.part.nonpolar>
-28.3140

> <Gold.PLP.part.repulsive>
0.0987

> <Gold.PLP.ligand.clash>
0.0000

> <Gold.PLP.ligand.torsion>
0.0000

> <Gold.PLP.Chemscore.Hbond>
1.0000

> <Gold.PLP.Chemscore.CHOScore>
0.0000

> <Gold.PLP.Chemscore.Metal>
0.0000

> <Gold.Chemscore.Hbonds>
donor molecule, donor type, donor heavy atom, donor atom, acceptor molecule, acceptor atom, score
      L1  H     6    14       P1   470  1.00

> <Gold.PLP.Chemscore.Internal.Correction>
0.0000

