#       Name:                EN300-157046_i001
#       Creating user name   aseyller
#       Creation time:       Fri Apr 21 12:30:47 2023


#       File generated by GOLD software.
#

@<TRIPOS>MOLECULE
EN300-157046_i001|amine_1|mol2|76|dock13
    15    15     1
SMALL
USER_CHARGES


@<TRIPOS>ATOM
      1 C1          30.5511  36.1177  39.1008 C.3            1 <1>                0.0000
      2 C2          29.1126  36.1778  39.5457 C.2            1 <1>                0.0000
      3 N3          28.6840  35.4779  40.5499 N.2            1 <1>                0.0000
      4 S4          27.0331  35.8062  40.7468 S.3            1 <1>                0.0000
      5 C5          26.9129  36.9184  39.4401 C.2            1 <1>                0.0000
      6 N6          25.7819  37.6021  39.0186 N.pl3          1 <1>                0.0000
      7 C7          28.1867  36.9902  38.9023 C.2            1 <1>                0.0000
      8 C8          28.5175  37.8183  37.7819 C.1            1 <1>                0.0000
      9 C9          28.7887  38.4973  36.8633 C.1            1 <1>                0.0000
     10 H10         30.6686  35.3303  38.3563 H              1 <1>                0.0000
     11 H11         30.8370  37.0751  38.6651 H              1 <1>                0.0000
     12 H12         31.1883  35.9043  39.9590 H              1 <1>                0.0000
     13 H13         29.0313  39.1045  36.0417 H              1 <1>                0.0000
     14 H14         24.9379  37.4739  39.4791 H              1 <1>                0.0000
     15 H15         25.8351  38.2085  38.2634 H              1 <1>                0.0000
@<TRIPOS>BOND
    1    1    2 1     
    2    1   10 1     
    3    1   11 1     
    4    1   12 1     
    5    2    3 2     
    6    2    7 1     
    7    3    4 1     
    8    4    5 1     
    9    5    6 1     
   10    5    7 2     
   11    6   14 1     
   12    6   15 1     
   13    7    8 1     
   14    8    9 3     
   15    9   13 1     
@<TRIPOS>SUBSTRUCTURE
      1 ****           1
@<TRIPOS>SET
DONOR_HYDROGENS      STATIC     ATOMS    <user>   **** ""
2 14 15
ATOM$RED        STATIC     ATOMS    COLORGROUP SYSTEM
2 14 15
@<TRIPOS>COMMENT
> <Gold.Version>
2022.2.0

> <Gold.Id.Protein>
1qkm|1qkm_protein|mol2

> <Gold.Protein.RotatedTorsions>
[  496  491  490  487 ] final  109.55 input  -89.99 | X-H torsion

> <Gold.Protein.ActiveResidues>
 MET295  LEU298  THR299  LEU301  ALA302  GLU305  TRP335  MET336  LEU339  MET340 
 GLY342  LEU343  ARG346  PHE356  ILE373  ILE376  PHE377  LEU380  LYS471  GLY472 
 MET473  HIS475  LEU476  LEU477  ASN478  MET479  VAL484  VAL487 

> <Gold.Protein.RotatedAtoms>
   36.9955   32.9432   41.7679 H   0  0  0  0  0  0  0  0  0  0  0  0  # atno 496  bound_to 491 

> <Gold.Score>
     Score     S(PLP)   S(hbond)     S(cho)   S(metal)  DE(clash)   DE(tors)     intcor
     28.08     -28.08       0.00       0.00       0.00       0.00       0.00       0.00

> <Gold.PLP.Fitness>
28.0751

> <Gold.PLP.PLP>
-28.0751

> <Gold.PLP.part.hbond>
0.0000

> <Gold.PLP.part.metal>
0.0000

> <Gold.PLP.part.buried>
-2.8990

> <Gold.PLP.part.nonpolar>
-25.3485

> <Gold.PLP.part.repulsive>
0.1703

> <Gold.PLP.ligand.clash>
0.0000

> <Gold.PLP.ligand.torsion>
0.0000

> <Gold.PLP.Chemscore.Hbond>
0.0000

> <Gold.PLP.Chemscore.CHOScore>
0.0000

> <Gold.PLP.Chemscore.Metal>
0.0000

> <Gold.PLP.Chemscore.Internal.Correction>
0.0000

