#       Name:                EN300-157046_i001
#       Creating user name   aseyller
#       Creation time:       Fri Apr 21 12:30:47 2023


#       File generated by GOLD software.
#

@<TRIPOS>MOLECULE
EN300-157046_i001|amine_1|mol2|76|dock11
    15    15     1
SMALL
USER_CHARGES


@<TRIPOS>ATOM
      1 C1          29.0035  37.6567  37.5747 C.3            1 <1>                0.0000
      2 C2          29.0019  36.9628  38.9124 C.2            1 <1>                0.0000
      3 N3          30.0955  36.5100  39.4423 N.2            1 <1>                0.0000
      4 S4          29.6993  35.8029  40.9307 S.3            1 <1>                0.0000
      5 C5          28.0119  36.1245  40.8401 C.2            1 <1>                0.0000
      6 N6          27.0417  35.7976  41.7760 N.pl3          1 <1>                0.0000
      7 C7          27.8293  36.7843  39.6367 C.2            1 <1>                0.0000
      8 C8          26.5497  37.2338  39.1770 C.1            1 <1>                0.0000
      9 C9          25.5007  37.6024  38.8002 C.1            1 <1>                0.0000
     10 H10         28.8567  36.9213  36.7837 H              1 <1>                0.0000
     11 H11         28.1967  38.3889  37.5443 H              1 <1>                0.0000
     12 H12         29.9583  38.1617  37.4286 H              1 <1>                0.0000
     13 H13         24.5624  37.9320  38.4631 H              1 <1>                0.0000
     14 H14         27.2907  35.3347  42.5913 H              1 <1>                0.0000
     15 H15         26.1143  36.0320  41.6153 H              1 <1>                0.0000
@<TRIPOS>BOND
    1    1    2 1     
    2    1   10 1     
    3    1   11 1     
    4    1   12 1     
    5    2    3 2     
    6    2    7 1     
    7    3    4 1     
    8    4    5 1     
    9    5    6 1     
   10    5    7 2     
   11    6   14 1     
   12    6   15 1     
   13    7    8 1     
   14    8    9 3     
   15    9   13 1     
@<TRIPOS>SUBSTRUCTURE
      1 ****           1
@<TRIPOS>SET
DONOR_HYDROGENS      STATIC     ATOMS    <user>   **** ""
2 14 15
ATOM$RED        STATIC     ATOMS    COLORGROUP SYSTEM
2 14 15
@<TRIPOS>COMMENT
> <Gold.Version>
2022.2.0

> <Gold.Id.Protein>
1qkm|1qkm_protein|mol2

> <Gold.Protein.RotatedTorsions>
[  496  491  490  487 ] final   52.90 input  -89.99 | X-H torsion

> <Gold.Protein.ActiveResidues>
 MET295  LEU298  THR299  LEU301  ALA302  GLU305  TRP335  MET336  LEU339  MET340 
 GLY342  LEU343  ARG346  PHE356  ILE373  ILE376  PHE377  LEU380  LYS471  GLY472 
 MET473  HIS475  LEU476  LEU477  ASN478  MET479  VAL484  VAL487 

> <Gold.Protein.RotatedAtoms>
   36.4948   33.4138   42.3413 H   0  0  0  0  0  0  0  0  0  0  0  0  # atno 496  bound_to 491 

> <Gold.Score>
     Score     S(PLP)   S(hbond)     S(cho)   S(metal)  DE(clash)   DE(tors)     intcor
     27.69     -26.16       0.51       0.00       0.00       0.00       0.00       0.00

> <Gold.PLP.Fitness>
27.6940

> <Gold.PLP.PLP>
-26.1580

> <Gold.PLP.part.hbond>
-1.0000

> <Gold.PLP.part.metal>
0.0000

> <Gold.PLP.part.buried>
1.3600

> <Gold.PLP.part.nonpolar>
-27.1594

> <Gold.PLP.part.repulsive>
0.1311

> <Gold.PLP.ligand.clash>
0.0000

> <Gold.PLP.ligand.torsion>
0.0000

> <Gold.PLP.Chemscore.Hbond>
0.5120

> <Gold.PLP.Chemscore.CHOScore>
0.0000

> <Gold.PLP.Chemscore.Metal>
0.0000

> <Gold.Chemscore.Hbonds>
donor molecule, donor type, donor heavy atom, donor atom, acceptor molecule, acceptor atom, score
      L1  H     6    14       P1   582  0.51

> <Gold.PLP.Chemscore.Internal.Correction>
0.0000

