#       Name:                EN300-157046_i001
#       Creating user name   aseyller
#       Creation time:       Fri Apr 21 12:30:46 2023


#       File generated by GOLD software.
#

@<TRIPOS>MOLECULE
EN300-157046_i001|amine_1|mol2|76|dock4
    15    15     1
SMALL
USER_CHARGES


@<TRIPOS>ATOM
      1 C1          27.5634  38.4050  37.2980 C.3            1 <1>                0.0000
      2 C2          28.5605  37.5929  38.0837 C.2            1 <1>                0.0000
      3 N3          29.7913  37.4696  37.6941 N.2            1 <1>                0.0000
      4 S4          30.5993  36.4953  38.8211 S.3            1 <1>                0.0000
      5 C5          29.2427  36.2447  39.8487 C.2            1 <1>                0.0000
      6 N6          29.2000  35.5018  41.0194 N.pl3          1 <1>                0.0000
      7 C7          28.2041  36.9472  39.2616 C.2            1 <1>                0.0000
      8 C8          26.8832  36.9969  39.8124 C.1            1 <1>                0.0000
      9 C9          25.8003  37.0377  40.2639 C.1            1 <1>                0.0000
     10 H10         27.0678  37.7648  36.5683 H              1 <1>                0.0000
     11 H11         26.8209  38.8244  37.9770 H              1 <1>                0.0000
     12 H12         28.0803  39.2132  36.7806 H              1 <1>                0.0000
     13 H13         24.8317  37.0742  40.6678 H              1 <1>                0.0000
     14 H14         29.9984  35.0528  41.3383 H              1 <1>                0.0000
     15 H15         28.3716  35.4314  41.5192 H              1 <1>                0.0000
@<TRIPOS>BOND
    1    1    2 1     
    2    1   10 1     
    3    1   11 1     
    4    1   12 1     
    5    2    3 2     
    6    2    7 1     
    7    3    4 1     
    8    4    5 1     
    9    5    6 1     
   10    5    7 2     
   11    6   14 1     
   12    6   15 1     
   13    7    8 1     
   14    8    9 3     
   15    9   13 1     
@<TRIPOS>SUBSTRUCTURE
      1 ****           1
@<TRIPOS>SET
DONOR_HYDROGENS      STATIC     ATOMS    <user>   **** ""
2 14 15
ATOM$RED        STATIC     ATOMS    COLORGROUP SYSTEM
2 14 15
@<TRIPOS>COMMENT
> <Gold.Version>
2022.2.0

> <Gold.Id.Protein>
1qkm|1qkm_protein|mol2

> <Gold.Protein.RotatedTorsions>
[  496  491  490  487 ] final  101.53 input  -89.99 | X-H torsion

> <Gold.Protein.ActiveResidues>
 MET295  LEU298  THR299  LEU301  ALA302  GLU305  TRP335  MET336  LEU339  MET340 
 GLY342  LEU343  ARG346  PHE356  ILE373  ILE376  PHE377  LEU380  LYS471  GLY472 
 MET473  HIS475  LEU476  LEU477  ASN478  MET479  VAL484  VAL487 

> <Gold.Protein.RotatedAtoms>
   36.9254   32.9633   41.8779 H   0  0  0  0  0  0  0  0  0  0  0  0  # atno 496  bound_to 491 

> <Gold.Score>
     Score     S(PLP)   S(hbond)     S(cho)   S(metal)  DE(clash)   DE(tors)     intcor
     31.81     -28.81       1.00       0.00       0.00       0.00       0.00       0.00

> <Gold.PLP.Fitness>
31.8054

> <Gold.PLP.PLP>
-28.8054

> <Gold.PLP.part.hbond>
-1.0000

> <Gold.PLP.part.metal>
0.0000

> <Gold.PLP.part.buried>
-2.8821

> <Gold.PLP.part.nonpolar>
-24.9177

> <Gold.PLP.part.repulsive>
0.0796

> <Gold.PLP.ligand.clash>
0.0000

> <Gold.PLP.ligand.torsion>
0.0000

> <Gold.PLP.Chemscore.Hbond>
1.0000

> <Gold.PLP.Chemscore.CHOScore>
0.0000

> <Gold.PLP.Chemscore.Metal>
0.0000

> <Gold.Chemscore.Hbonds>
donor molecule, donor type, donor heavy atom, donor atom, acceptor molecule, acceptor atom, score
      L1  H     6    14       P1   470  1.00

> <Gold.PLP.Chemscore.Internal.Correction>
0.0000

