#       Name:                EN300-157046_i001
#       Creating user name   aseyller
#       Creation time:       Fri Apr 21 12:30:45 2023


#       File generated by GOLD software.
#

@<TRIPOS>MOLECULE
EN300-157046_i001|amine_1|mol2|76|dock1
    15    15     1
SMALL
USER_CHARGES


@<TRIPOS>ATOM
      1 C1          27.2158  37.8010  37.7649 C.3            1 <1>                0.0000
      2 C2          26.8397  37.2936  39.1331 C.2            1 <1>                0.0000
      3 N3          25.6498  37.4698  39.6179 N.2            1 <1>                0.0000
      4 S4          25.6066  36.7687  41.1602 S.3            1 <1>                0.0000
      5 C5          27.2374  36.2212  41.1556 C.2            1 <1>                0.0000
      6 N6          27.8961  35.5315  42.1628 N.pl3          1 <1>                0.0000
      7 C7          27.7506  36.6106  39.9301 C.2            1 <1>                0.0000
      8 C8          29.0975  36.3418  39.5247 C.1            1 <1>                0.0000
      9 C9          30.2017  36.1214  39.1923 C.1            1 <1>                0.0000
     10 H10         27.6072  38.8149  37.8483 H              1 <1>                0.0000
     11 H11         27.9776  37.1518  37.3333 H              1 <1>                0.0000
     12 H12         26.3345  37.8034  37.1234 H              1 <1>                0.0000
     13 H13         31.1893  35.9243  38.8951 H              1 <1>                0.0000
     14 H14         27.4292  35.3079  42.9831 H              1 <1>                0.0000
     15 H15         28.8237  35.2726  42.0468 H              1 <1>                0.0000
@<TRIPOS>BOND
    1    1    2 1     
    2    1   10 1     
    3    1   11 1     
    4    1   12 1     
    5    2    3 2     
    6    2    7 1     
    7    3    4 1     
    8    4    5 1     
    9    5    6 1     
   10    5    7 2     
   11    6   14 1     
   12    6   15 1     
   13    7    8 1     
   14    8    9 3     
   15    9   13 1     
@<TRIPOS>SUBSTRUCTURE
      1 ****           1
@<TRIPOS>SET
DONOR_HYDROGENS      STATIC     ATOMS    <user>   **** ""
2 14 15
ATOM$RED        STATIC     ATOMS    COLORGROUP SYSTEM
2 14 15
@<TRIPOS>COMMENT
> <Gold.Version>
2022.2.0

> <Gold.Id.Protein>
1qkm|1qkm_protein|mol2

> <Gold.Protein.RotatedTorsions>
[  496  491  490  487 ] final   91.46 input  -89.99 | X-H torsion

> <Gold.Protein.ActiveResidues>
 MET295  LEU298  THR299  LEU301  ALA302  GLU305  TRP335  MET336  LEU339  MET340 
 GLY342  LEU343  ARG346  PHE356  ILE373  ILE376  PHE377  LEU380  LYS471  GLY472 
 MET473  HIS475  LEU476  LEU477  ASN478  MET479  VAL484  VAL487 

> <Gold.Protein.RotatedAtoms>
   36.8337   33.0126   42.0066 H   0  0  0  0  0  0  0  0  0  0  0  0  # atno 496  bound_to 491 

> <Gold.Score>
     Score     S(PLP)   S(hbond)     S(cho)   S(metal)  DE(clash)   DE(tors)     intcor
     35.57     -32.57       1.00       0.00       0.00       0.00       0.00       0.00

> <Gold.PLP.Fitness>
35.5656

> <Gold.PLP.PLP>
-32.5656

> <Gold.PLP.part.hbond>
-1.0000

> <Gold.PLP.part.metal>
0.0000

> <Gold.PLP.part.buried>
-3.9640

> <Gold.PLP.part.nonpolar>
-28.1610

> <Gold.PLP.part.repulsive>
0.1575

> <Gold.PLP.ligand.clash>
0.0000

> <Gold.PLP.ligand.torsion>
0.0000

> <Gold.PLP.Chemscore.Hbond>
1.0000

> <Gold.PLP.Chemscore.CHOScore>
0.0000

> <Gold.PLP.Chemscore.Metal>
0.0000

> <Gold.Chemscore.Hbonds>
donor molecule, donor type, donor heavy atom, donor atom, acceptor molecule, acceptor atom, score
      L1  H     6    14       P1   582  1.00

> <Gold.PLP.Chemscore.Internal.Correction>
0.0000

