#       Name:                EN300-157046_i001
#       Creating user name   aseyller
#       Creation time:       Fri Apr 21 12:30:48 2023


#       File generated by GOLD software.
#

@<TRIPOS>MOLECULE
EN300-157046_i001|amine_1|mol2|76|dock16
    15    15     1
SMALL
USER_CHARGES


@<TRIPOS>ATOM
      1 C1          28.6746  37.7800  36.4611 C.3            1 <1>                0.0000
      2 C2          29.4430  37.0640  37.5418 C.2            1 <1>                0.0000
      3 N3          30.6902  36.7436  37.3876 N.2            1 <1>                0.0000
      4 S4          31.2053  35.9611  38.7999 S.3            1 <1>                0.0000
      5 C5          29.6994  36.0667  39.6246 C.2            1 <1>                0.0000
      6 N6          29.4020  35.5994  40.8963 N.pl3          1 <1>                0.0000
      7 C7          28.8489  36.7226  38.7508 C.2            1 <1>                0.0000
      8 C8          27.4817  37.0146  39.0608 C.1            1 <1>                0.0000
      9 C9          26.3608  37.2541  39.3149 C.1            1 <1>                0.0000
     10 H10         28.2074  37.0484  35.8019 H              1 <1>                0.0000
     11 H11         27.9047  38.4039  36.9152 H              1 <1>                0.0000
     12 H12         29.3560  38.4057  35.8845 H              1 <1>                0.0000
     13 H13         25.3583  37.4682  39.5422 H              1 <1>                0.0000
     14 H14         30.0856  35.1552  41.4220 H              1 <1>                0.0000
     15 H15         28.5104  35.7168  41.2600 H              1 <1>                0.0000
@<TRIPOS>BOND
    1    1    2 1     
    2    1   10 1     
    3    1   11 1     
    4    1   12 1     
    5    2    3 2     
    6    2    7 1     
    7    3    4 1     
    8    4    5 1     
    9    5    6 1     
   10    5    7 2     
   11    6   14 1     
   12    6   15 1     
   13    7    8 1     
   14    8    9 3     
   15    9   13 1     
@<TRIPOS>SUBSTRUCTURE
      1 ****           1
@<TRIPOS>SET
DONOR_HYDROGENS      STATIC     ATOMS    <user>   **** ""
2 14 15
ATOM$RED        STATIC     ATOMS    COLORGROUP SYSTEM
2 14 15
@<TRIPOS>COMMENT
> <Gold.Version>
2022.2.0

> <Gold.Id.Protein>
1qkm|1qkm_protein|mol2

> <Gold.Protein.RotatedTorsions>
[  496  491  490  487 ] final  -46.22 input  -89.99 | X-H torsion

> <Gold.Protein.ActiveResidues>
 MET295  LEU298  THR299  LEU301  ALA302  GLU305  TRP335  MET336  LEU339  MET340 
 GLY342  LEU343  ARG346  PHE356  ILE373  ILE376  PHE377  LEU380  LYS471  GLY472 
 MET473  HIS475  LEU476  LEU477  ASN478  MET479  VAL484  VAL487 

> <Gold.Protein.RotatedAtoms>
   36.4000   34.6867   41.6841 H   0  0  0  0  0  0  0  0  0  0  0  0  # atno 496  bound_to 491 

> <Gold.Score>
     Score     S(PLP)   S(hbond)     S(cho)   S(metal)  DE(clash)   DE(tors)     intcor
     27.58     -24.60       0.99       0.00       0.00       0.00       0.00       0.00

> <Gold.PLP.Fitness>
27.5754

> <Gold.PLP.PLP>
-24.5994

> <Gold.PLP.part.hbond>
-1.0000

> <Gold.PLP.part.metal>
0.0000

> <Gold.PLP.part.buried>
-2.5100

> <Gold.PLP.part.nonpolar>
-22.0197

> <Gold.PLP.part.repulsive>
0.0835

> <Gold.PLP.ligand.clash>
0.0000

> <Gold.PLP.ligand.torsion>
0.0000

> <Gold.PLP.Chemscore.Hbond>
0.9920

> <Gold.PLP.Chemscore.CHOScore>
0.0000

> <Gold.PLP.Chemscore.Metal>
0.0000

> <Gold.Chemscore.Hbonds>
donor molecule, donor type, donor heavy atom, donor atom, acceptor molecule, acceptor atom, score
      L1  H     6    14       P1   470  0.99

> <Gold.PLP.Chemscore.Internal.Correction>
0.0000

