#       Name:                EN300-157046_i001
#       Creating user name   aseyller
#       Creation time:       Fri Apr 21 12:30:46 2023


#       File generated by GOLD software.
#

@<TRIPOS>MOLECULE
EN300-157046_i001|amine_1|mol2|76|dock6
    15    15     1
SMALL
USER_CHARGES


@<TRIPOS>ATOM
      1 C1          30.3165  37.0304  38.2987 C.3            1 <1>                0.0000
      2 C2          31.5125  36.5931  37.4928 C.2            1 <1>                0.0000
      3 N3          32.4204  35.8151  37.9951 N.2            1 <1>                0.0000
      4 S4          33.5939  35.5462  36.8023 S.3            1 <1>                0.0000
      5 C5          32.8431  36.5083  35.5900 C.2            1 <1>                0.0000
      6 N6          33.2946  36.7375  34.2986 N.pl3          1 <1>                0.0000
      7 C7          31.6893  37.0006  36.1760 C.2            1 <1>                0.0000
      8 C8          30.7680  37.8569  35.4915 C.1            1 <1>                0.0000
      9 C9          30.0126  38.5589  34.9303 C.1            1 <1>                0.0000
     10 H10         30.5501  37.9578  38.8217 H              1 <1>                0.0000
     11 H11         29.4691  37.1925  37.6325 H              1 <1>                0.0000
     12 H12         30.0652  36.2572  39.0247 H              1 <1>                0.0000
     13 H13         29.3370  39.1868  34.4284 H              1 <1>                0.0000
     14 H14         34.1220  36.3325  33.9950 H              1 <1>                0.0000
     15 H15         32.7827  37.3026  33.6990 H              1 <1>                0.0000
@<TRIPOS>BOND
    1    1    2 1     
    2    1   10 1     
    3    1   11 1     
    4    1   12 1     
    5    2    3 2     
    6    2    7 1     
    7    3    4 1     
    8    4    5 1     
    9    5    6 1     
   10    5    7 2     
   11    6   14 1     
   12    6   15 1     
   13    7    8 1     
   14    8    9 3     
   15    9   13 1     
@<TRIPOS>SUBSTRUCTURE
      1 ****           1
@<TRIPOS>SET
DONOR_HYDROGENS      STATIC     ATOMS    <user>   **** ""
2 14 15
ATOM$RED        STATIC     ATOMS    COLORGROUP SYSTEM
2 14 15
@<TRIPOS>COMMENT
> <Gold.Version>
2022.2.0

> <Gold.Id.Protein>
1qkm|1qkm_protein|mol2

> <Gold.Protein.RotatedTorsions>
[  496  491  490  487 ] final  129.31 input  -89.99 | X-H torsion

> <Gold.Protein.ActiveResidues>
 MET295  LEU298  THR299  LEU301  ALA302  GLU305  TRP335  MET336  LEU339  MET340 
 GLY342  LEU343  ARG346  PHE356  ILE373  ILE376  PHE377  LEU380  LYS471  GLY472 
 MET473  HIS475  LEU476  LEU477  ASN478  MET479  VAL484  VAL487 

> <Gold.Protein.RotatedAtoms>
   37.1483   32.9683   41.4837 H   0  0  0  0  0  0  0  0  0  0  0  0  # atno 496  bound_to 491 

> <Gold.Score>
     Score     S(PLP)   S(hbond)     S(cho)   S(metal)  DE(clash)   DE(tors)     intcor
     26.97     -26.97       0.00       0.00       0.00       0.00       0.00       0.00

> <Gold.PLP.Fitness>
26.9740

> <Gold.PLP.PLP>
-26.9740

> <Gold.PLP.part.hbond>
-1.2565

> <Gold.PLP.part.metal>
0.0000

> <Gold.PLP.part.buried>
-3.4601

> <Gold.PLP.part.nonpolar>
-22.8111

> <Gold.PLP.part.repulsive>
0.1296

> <Gold.PLP.ligand.clash>
0.0000

> <Gold.PLP.ligand.torsion>
0.0000

> <Gold.PLP.Chemscore.Hbond>
0.0000

> <Gold.PLP.Chemscore.CHOScore>
0.0000

> <Gold.PLP.Chemscore.Metal>
0.0000

> <Gold.PLP.Chemscore.Internal.Correction>
0.0000

