#       Name:                EN300-157046_i001
#       Creating user name   aseyller
#       Creation time:       Fri Apr 21 12:30:48 2023


#       File generated by GOLD software.
#

@<TRIPOS>MOLECULE
EN300-157046_i001|amine_1|mol2|76|dock18
    15    15     1
SMALL
USER_CHARGES


@<TRIPOS>ATOM
      1 C1          30.0508  36.9638  38.3669 C.3            1 <1>                0.0000
      2 C2          28.9239  36.5466  39.2764 C.2            1 <1>                0.0000
      3 N3          29.1071  35.6916  40.2341 N.2            1 <1>                0.0000
      4 S4          27.6269  35.4767  41.0309 S.3            1 <1>                0.0000
      5 C5          26.7324  36.5689  40.0479 C.2            1 <1>                0.0000
      6 N6          25.3869  36.8887  40.1553 N.pl3          1 <1>                0.0000
      7 C7          27.6429  37.0651  39.1304 C.2            1 <1>                0.0000
      8 C8          27.2949  38.0178  38.1195 C.1            1 <1>                0.0000
      9 C9          27.0097  38.7990  37.2908 C.1            1 <1>                0.0000
     10 H10         30.0891  36.2962  37.5061 H              1 <1>                0.0000
     11 H11         29.8839  37.9858  38.0270 H              1 <1>                0.0000
     12 H12         30.9945  36.9109  38.9099 H              1 <1>                0.0000
     13 H13         26.7546  39.4976  36.5496 H              1 <1>                0.0000
     14 H14         24.8443  36.4775  40.8461 H              1 <1>                0.0000
     15 H15         24.9887  37.5237  39.5395 H              1 <1>                0.0000
@<TRIPOS>BOND
    1    1    2 1     
    2    1   10 1     
    3    1   11 1     
    4    1   12 1     
    5    2    3 2     
    6    2    7 1     
    7    3    4 1     
    8    4    5 1     
    9    5    6 1     
   10    5    7 2     
   11    6   14 1     
   12    6   15 1     
   13    7    8 1     
   14    8    9 3     
   15    9   13 1     
@<TRIPOS>SUBSTRUCTURE
      1 ****           1
@<TRIPOS>SET
DONOR_HYDROGENS      STATIC     ATOMS    <user>   **** ""
2 14 15
ATOM$RED        STATIC     ATOMS    COLORGROUP SYSTEM
2 14 15
@<TRIPOS>COMMENT
> <Gold.Version>
2022.2.0

> <Gold.Id.Protein>
1qkm|1qkm_protein|mol2

> <Gold.Protein.RotatedTorsions>
[  496  491  490  487 ] final   40.22 input  -89.99 | X-H torsion

> <Gold.Protein.ActiveResidues>
 MET295  LEU298  THR299  LEU301  ALA302  GLU305  TRP335  MET336  LEU339  MET340 
 GLY342  LEU343  ARG346  PHE356  ILE373  ILE376  PHE377  LEU380  LYS471  GLY472 
 MET473  HIS475  LEU476  LEU477  ASN478  MET479  VAL484  VAL487 

> <Gold.Protein.RotatedAtoms>
   36.4051   33.5981   42.3793 H   0  0  0  0  0  0  0  0  0  0  0  0  # atno 496  bound_to 491 

> <Gold.Score>
     Score     S(PLP)   S(hbond)     S(cho)   S(metal)  DE(clash)   DE(tors)     intcor
     27.83     -27.83       0.00       0.00       0.00       0.00       0.00       0.00

> <Gold.PLP.Fitness>
27.8316

> <Gold.PLP.PLP>
-27.8316

> <Gold.PLP.part.hbond>
-0.9688

> <Gold.PLP.part.metal>
0.0000

> <Gold.PLP.part.buried>
-2.9651

> <Gold.PLP.part.nonpolar>
-23.9570

> <Gold.PLP.part.repulsive>
0.2181

> <Gold.PLP.ligand.clash>
0.0000

> <Gold.PLP.ligand.torsion>
0.0000

> <Gold.PLP.Chemscore.Hbond>
0.0000

> <Gold.PLP.Chemscore.CHOScore>
0.0000

> <Gold.PLP.Chemscore.Metal>
0.0000

> <Gold.PLP.Chemscore.Internal.Correction>
0.0000

