#       Name:                EN300-157046_i001
#       Creating user name   aseyller
#       Creation time:       Fri Apr 21 12:30:45 2023


#       File generated by GOLD software.
#

@<TRIPOS>MOLECULE
EN300-157046_i001|amine_1|mol2|76|dock2
    15    15     1
SMALL
USER_CHARGES


@<TRIPOS>ATOM
      1 C1          29.4366  37.1280  38.2859 C.3            1 <1>                0.0000
      2 C2          28.8136  36.6173  39.5594 C.2            1 <1>                0.0000
      3 N3          29.5226  36.0300  40.4728 N.2            1 <1>                0.0000
      4 S4          28.4851  35.6015  41.7424 S.3            1 <1>                0.0000
      5 C5          27.0532  36.2301  41.0256 C.2            1 <1>                0.0000
      6 N6          25.7710  36.2148  41.5546 N.pl3          1 <1>                0.0000
      7 C7          27.4542  36.7597  39.8109 C.2            1 <1>                0.0000
      8 C8          26.5507  37.3884  38.8949 C.1            1 <1>                0.0000
      9 C9          25.8100  37.9039  38.1439 C.1            1 <1>                0.0000
     10 H10         29.4128  36.3433  37.5297 H              1 <1>                0.0000
     11 H11         28.8777  37.9932  37.9294 H              1 <1>                0.0000
     12 H12         30.4701  37.4168  38.4774 H              1 <1>                0.0000
     13 H13         25.1476  38.3649  37.4722 H              1 <1>                0.0000
     14 H14         25.6097  35.8162  42.4241 H              1 <1>                0.0000
     15 H15         25.0356  36.6027  41.0550 H              1 <1>                0.0000
@<TRIPOS>BOND
    1    1    2 1     
    2    1   10 1     
    3    1   11 1     
    4    1   12 1     
    5    2    3 2     
    6    2    7 1     
    7    3    4 1     
    8    4    5 1     
    9    5    6 1     
   10    5    7 2     
   11    6   14 1     
   12    6   15 1     
   13    7    8 1     
   14    8    9 3     
   15    9   13 1     
@<TRIPOS>SUBSTRUCTURE
      1 ****           1
@<TRIPOS>SET
DONOR_HYDROGENS      STATIC     ATOMS    <user>   **** ""
2 14 15
ATOM$RED        STATIC     ATOMS    COLORGROUP SYSTEM
2 14 15
@<TRIPOS>COMMENT
> <Gold.Version>
2022.2.0

> <Gold.Id.Protein>
1qkm|1qkm_protein|mol2

> <Gold.Protein.RotatedTorsions>
[  496  491  490  487 ] final -163.93 input  -89.99 | X-H torsion

> <Gold.Protein.ActiveResidues>
 MET295  LEU298  THR299  LEU301  ALA302  GLU305  TRP335  MET336  LEU339  MET340 
 GLY342  LEU343  ARG346  PHE356  ILE373  ILE376  PHE377  LEU380  LYS471  GLY472 
 MET473  HIS475  LEU476  LEU477  ASN478  MET479  VAL484  VAL487 

> <Gold.Protein.RotatedAtoms>
   37.2885   33.7022   40.7634 H   0  0  0  0  0  0  0  0  0  0  0  0  # atno 496  bound_to 491 

> <Gold.Score>
     Score     S(PLP)   S(hbond)     S(cho)   S(metal)  DE(clash)   DE(tors)     intcor
     31.73     -28.73       1.00       0.00       0.00       0.00       0.00       0.00

> <Gold.PLP.Fitness>
31.7287

> <Gold.PLP.PLP>
-28.7287

> <Gold.PLP.part.hbond>
-1.0000

> <Gold.PLP.part.metal>
0.0000

> <Gold.PLP.part.buried>
-3.6429

> <Gold.PLP.part.nonpolar>
-26.1866

> <Gold.PLP.part.repulsive>
1.3214

> <Gold.PLP.ligand.clash>
0.0000

> <Gold.PLP.ligand.torsion>
0.0000

> <Gold.PLP.Chemscore.Hbond>
1.0000

> <Gold.PLP.Chemscore.CHOScore>
0.0000

> <Gold.PLP.Chemscore.Metal>
0.0000

> <Gold.Chemscore.Hbonds>
donor molecule, donor type, donor heavy atom, donor atom, acceptor molecule, acceptor atom, score
      L1  H     6    14       P1   582  1.00

> <Gold.PLP.Chemscore.Internal.Correction>
0.0000

