#       Name:                EN300-157046_i001
#       Creating user name   aseyller
#       Creation time:       Fri Apr 21 12:30:46 2023


#       File generated by GOLD software.
#

@<TRIPOS>MOLECULE
EN300-157046_i001|amine_1|mol2|76|dock5
    15    15     1
SMALL
USER_CHARGES


@<TRIPOS>ATOM
      1 C1          25.7787  37.5076  39.1226 C.3            1 <1>                0.0000
      2 C2          26.9035  36.7869  39.8200 C.2            1 <1>                0.0000
      3 N3          26.7252  36.1946  40.9599 N.2            1 <1>                0.0000
      4 S4          28.2012  35.5030  41.4240 S.3            1 <1>                0.0000
      5 C5          29.0870  36.0249  40.0448 C.2            1 <1>                0.0000
      6 N6          30.4259  35.7920  39.7673 N.pl3          1 <1>                0.0000
      7 C7          28.1773  36.7221  39.2680 C.2            1 <1>                0.0000
      8 C8          28.5192  37.3273  38.0161 C.1            1 <1>                0.0000
      9 C9          28.7995  37.8235  36.9896 C.1            1 <1>                0.0000
     10 H10         25.7596  38.5489  39.4443 H              1 <1>                0.0000
     11 H11         25.9321  37.4632  38.0444 H              1 <1>                0.0000
     12 H12         24.8309  37.0320  39.3747 H              1 <1>                0.0000
     13 H13         29.0503  38.2673  36.0716 H              1 <1>                0.0000
     14 H14         30.9686  35.2824  40.3891 H              1 <1>                0.0000
     15 H15         30.8196  36.1386  38.9513 H              1 <1>                0.0000
@<TRIPOS>BOND
    1    1    2 1     
    2    1   10 1     
    3    1   11 1     
    4    1   12 1     
    5    2    3 2     
    6    2    7 1     
    7    3    4 1     
    8    4    5 1     
    9    5    6 1     
   10    5    7 2     
   11    6   14 1     
   12    6   15 1     
   13    7    8 1     
   14    8    9 3     
   15    9   13 1     
@<TRIPOS>SUBSTRUCTURE
      1 ****           1
@<TRIPOS>SET
DONOR_HYDROGENS      STATIC     ATOMS    <user>   **** ""
2 14 15
ATOM$RED        STATIC     ATOMS    COLORGROUP SYSTEM
2 14 15
@<TRIPOS>COMMENT
> <Gold.Version>
2022.2.0

> <Gold.Id.Protein>
1qkm|1qkm_protein|mol2

> <Gold.Protein.RotatedTorsions>
[  496  491  490  487 ] final  -81.11 input  -89.99 | X-H torsion

> <Gold.Protein.ActiveResidues>
 MET295  LEU298  THR299  LEU301  ALA302  GLU305  TRP335  MET336  LEU339  MET340 
 GLY342  LEU343  ARG346  PHE356  ILE373  ILE376  PHE377  LEU380  LYS471  GLY472 
 MET473  HIS475  LEU476  LEU477  ASN478  MET479  VAL484  VAL487 

> <Gold.Protein.RotatedAtoms>
   36.6759   34.7016   41.1907 H   0  0  0  0  0  0  0  0  0  0  0  0  # atno 496  bound_to 491 

> <Gold.Score>
     Score     S(PLP)   S(hbond)     S(cho)   S(metal)  DE(clash)   DE(tors)     intcor
     33.52     -30.52       1.00       0.00       0.00       0.00       0.00       0.00

> <Gold.PLP.Fitness>
33.5188

> <Gold.PLP.PLP>
-30.5188

> <Gold.PLP.part.hbond>
-1.0000

> <Gold.PLP.part.metal>
0.0000

> <Gold.PLP.part.buried>
-2.5921

> <Gold.PLP.part.nonpolar>
-27.8023

> <Gold.PLP.part.repulsive>
0.1918

> <Gold.PLP.ligand.clash>
0.0000

> <Gold.PLP.ligand.torsion>
0.0000

> <Gold.PLP.Chemscore.Hbond>
1.0000

> <Gold.PLP.Chemscore.CHOScore>
0.0000

> <Gold.PLP.Chemscore.Metal>
0.0000

> <Gold.Chemscore.Hbonds>
donor molecule, donor type, donor heavy atom, donor atom, acceptor molecule, acceptor atom, score
      L1  H     6    14       P1   470  1.00

> <Gold.PLP.Chemscore.Internal.Correction>
0.0000

