#       Name:                EN300-157046_i001
#       Creating user name   aseyller
#       Creation time:       Fri Apr 21 12:30:46 2023


#       File generated by GOLD software.
#

@<TRIPOS>MOLECULE
EN300-157046_i001|amine_1|mol2|76|dock3
    15    15     1
SMALL
USER_CHARGES


@<TRIPOS>ATOM
      1 C1          30.9229  36.1185  38.3795 C.3            1 <1>                0.0000
      2 C2          31.9307  36.3020  37.2743 C.2            1 <1>                0.0000
      3 N3          32.9734  35.5374  37.1741 N.2            1 <1>                0.0000
      4 S4          33.8621  36.0429  35.8225 S.3            1 <1>                0.0000
      5 C5          32.8013  37.3216  35.3766 C.2            1 <1>                0.0000
      6 N6          32.9358  38.1910  34.3041 N.pl3          1 <1>                0.0000
      7 C7          31.7817  37.2945  36.3130 C.2            1 <1>                0.0000
      8 C8          30.6803  38.2095  36.2972 C.1            1 <1>                0.0000
      9 C9          29.7773  38.9597  36.2842 C.1            1 <1>                0.0000
     10 H10         31.2123  36.7231  39.2391 H              1 <1>                0.0000
     11 H11         29.9392  36.4316  38.0299 H              1 <1>                0.0000
     12 H12         30.8885  35.0682  38.6691 H              1 <1>                0.0000
     13 H13         28.9697  39.6306  36.2726 H              1 <1>                0.0000
     14 H14         33.6964  38.1113  33.7075 H              1 <1>                0.0000
     15 H15         32.2691  38.8787  34.1507 H              1 <1>                0.0000
@<TRIPOS>BOND
    1    1    2 1     
    2    1   10 1     
    3    1   11 1     
    4    1   12 1     
    5    2    3 2     
    6    2    7 1     
    7    3    4 1     
    8    4    5 1     
    9    5    6 1     
   10    5    7 2     
   11    6   14 1     
   12    6   15 1     
   13    7    8 1     
   14    8    9 3     
   15    9   13 1     
@<TRIPOS>SUBSTRUCTURE
      1 ****           1
@<TRIPOS>SET
DONOR_HYDROGENS      STATIC     ATOMS    <user>   **** ""
2 14 15
ATOM$RED        STATIC     ATOMS    COLORGROUP SYSTEM
2 14 15
@<TRIPOS>COMMENT
> <Gold.Version>
2022.2.0

> <Gold.Id.Protein>
1qkm|1qkm_protein|mol2

> <Gold.Protein.RotatedTorsions>
[  496  491  490  487 ] final  -50.04 input  -89.99 | X-H torsion

> <Gold.Protein.ActiveResidues>
 MET295  LEU298  THR299  LEU301  ALA302  GLU305  TRP335  MET336  LEU339  MET340 
 GLY342  LEU343  ARG346  PHE356  ILE373  ILE376  PHE377  LEU380  LYS471  GLY472 
 MET473  HIS475  LEU476  LEU477  ASN478  MET479  VAL484  VAL487 

> <Gold.Protein.RotatedAtoms>
   36.4248   34.7043   41.6291 H   0  0  0  0  0  0  0  0  0  0  0  0  # atno 496  bound_to 491 

> <Gold.Score>
     Score     S(PLP)   S(hbond)     S(cho)   S(metal)  DE(clash)   DE(tors)     intcor
     28.76     -25.76       1.00       0.00       0.00       0.00       0.00       0.00

> <Gold.PLP.Fitness>
28.7578

> <Gold.PLP.PLP>
-25.7578

> <Gold.PLP.part.hbond>
-1.0000

> <Gold.PLP.part.metal>
0.0000

> <Gold.PLP.part.buried>
-2.7621

> <Gold.PLP.part.nonpolar>
-21.7741

> <Gold.PLP.part.repulsive>
0.0464

> <Gold.PLP.ligand.clash>
0.0000

> <Gold.PLP.ligand.torsion>
0.0000

> <Gold.PLP.Chemscore.Hbond>
1.0000

> <Gold.PLP.Chemscore.CHOScore>
0.0000

> <Gold.PLP.Chemscore.Metal>
0.0000

> <Gold.Chemscore.Hbonds>
donor molecule, donor type, donor heavy atom, donor atom, acceptor molecule, acceptor atom, score
      L1  H     6    14       P1  3229  1.00

> <Gold.PLP.Chemscore.Internal.Correction>
0.0000

