#       Name:                EN300-157046_i001
#       Creating user name   aseyller
#       Creation time:       Fri Apr 21 12:30:49 2023


#       File generated by GOLD software.
#

@<TRIPOS>MOLECULE
EN300-157046_i001|amine_1|mol2|76|dock20
    15    15     1
SMALL
USER_CHARGES


@<TRIPOS>ATOM
      1 C1          29.9229  39.6675  36.6284 C.3            1 <1>                0.0000
      2 C2          30.3591  38.3443  37.2029 C.2            1 <1>                0.0000
      3 N3          29.8799  37.9010  38.3235 N.2            1 <1>                0.0000
      4 S4          30.5995  36.3997  38.6401 S.3            1 <1>                0.0000
      5 C5          31.5752  36.3646  37.2238 C.2            1 <1>                0.0000
      6 N6          32.4571  35.3673  36.8342 N.pl3          1 <1>                0.0000
      7 C7          31.2886  37.5413  36.5528 C.2            1 <1>                0.0000
      8 C8          31.8994  37.9014  35.3087 C.1            1 <1>                0.0000
      9 C9          32.4002  38.1966  34.2887 C.1            1 <1>                0.0000
     10 H10         30.5754  40.4576  36.9999 H              1 <1>                0.0000
     11 H11         29.9823  39.6286  35.5408 H              1 <1>                0.0000
     12 H12         28.8956  39.8732  36.9292 H              1 <1>                0.0000
     13 H13         32.8481  38.4606  33.3764 H              1 <1>                0.0000
     14 H14         32.5735  34.5794  37.3878 H              1 <1>                0.0000
     15 H15         32.9573  35.4578  36.0080 H              1 <1>                0.0000
@<TRIPOS>BOND
    1    1    2 1     
    2    1   10 1     
    3    1   11 1     
    4    1   12 1     
    5    2    3 2     
    6    2    7 1     
    7    3    4 1     
    8    4    5 1     
    9    5    6 1     
   10    5    7 2     
   11    6   14 1     
   12    6   15 1     
   13    7    8 1     
   14    8    9 3     
   15    9   13 1     
@<TRIPOS>SUBSTRUCTURE
      1 ****           1
@<TRIPOS>SET
DONOR_HYDROGENS      STATIC     ATOMS    <user>   **** ""
2 14 15
ATOM$RED        STATIC     ATOMS    COLORGROUP SYSTEM
2 14 15
@<TRIPOS>COMMENT
> <Gold.Version>
2022.2.0

> <Gold.Id.Protein>
1qkm|1qkm_protein|mol2

> <Gold.Protein.RotatedTorsions>
[  496  491  490  487 ] final  -11.09 input  -89.99 | X-H torsion

> <Gold.Protein.ActiveResidues>
 MET295  LEU298  THR299  LEU301  ALA302  GLU305  TRP335  MET336  LEU339  MET340 
 GLY342  LEU343  ARG346  PHE356  ILE373  ILE376  PHE377  LEU380  LYS471  GLY472 
 MET473  HIS475  LEU476  LEU477  ASN478  MET479  VAL484  VAL487 

> <Gold.Protein.RotatedAtoms>
   36.2635   34.3635   42.1324 H   0  0  0  0  0  0  0  0  0  0  0  0  # atno 496  bound_to 491 

> <Gold.Score>
     Score     S(PLP)   S(hbond)     S(cho)   S(metal)  DE(clash)   DE(tors)     intcor
     26.95     -26.95       0.00       0.00       0.00       0.00       0.00       0.00

> <Gold.PLP.Fitness>
26.9529

> <Gold.PLP.PLP>
-26.9529

> <Gold.PLP.part.hbond>
0.0000

> <Gold.PLP.part.metal>
0.0000

> <Gold.PLP.part.buried>
-2.5001

> <Gold.PLP.part.nonpolar>
-24.3652

> <Gold.PLP.part.repulsive>
0.0000

> <Gold.PLP.ligand.clash>
0.0000

> <Gold.PLP.ligand.torsion>
0.0000

> <Gold.PLP.Chemscore.Hbond>
0.0000

> <Gold.PLP.Chemscore.CHOScore>
0.0000

> <Gold.PLP.Chemscore.Metal>
0.0000

> <Gold.PLP.Chemscore.Internal.Correction>
0.0000

