#       Name:                EN300-157046_i001
#       Creating user name   aseyller
#       Creation time:       Fri Apr 21 12:30:48 2023


#       File generated by GOLD software.
#

@<TRIPOS>MOLECULE
EN300-157046_i001|amine_1|mol2|76|dock14
    15    15     1
SMALL
USER_CHARGES


@<TRIPOS>ATOM
      1 C1          30.3477  36.8029  38.7426 C.3            1 <1>                0.0000
      2 C2          28.9419  37.2945  38.5122 C.2            1 <1>                0.0000
      3 N3          28.6562  38.0962  37.5336 N.2            1 <1>                0.0000
      4 S4          26.9946  38.4236  37.5967 S.3            1 <1>                0.0000
      5 C5          26.6717  37.4541  38.9805 C.2            1 <1>                0.0000
      6 N6          25.4483  37.2597  39.6047 N.pl3          1 <1>                0.0000
      7 C7          27.8921  36.9047  39.3352 C.2            1 <1>                0.0000
      8 C8          28.0586  36.0232  40.4513 C.1            1 <1>                0.0000
      9 C9          28.1951  35.3004  41.3664 C.1            1 <1>                0.0000
     10 H10         30.8692  37.4920  39.4069 H              1 <1>                0.0000
     11 H11         30.3164  35.8131  39.1979 H              1 <1>                0.0000
     12 H12         30.8742  36.7482  37.7898 H              1 <1>                0.0000
     13 H13         28.3173  34.6540  42.1848 H              1 <1>                0.0000
     14 H14         24.6537  37.6973  39.2613 H              1 <1>                0.0000
     15 H15         25.3874  36.6860  40.3845 H              1 <1>                0.0000
@<TRIPOS>BOND
    1    1    2 1     
    2    1   10 1     
    3    1   11 1     
    4    1   12 1     
    5    2    3 2     
    6    2    7 1     
    7    3    4 1     
    8    4    5 1     
    9    5    6 1     
   10    5    7 2     
   11    6   14 1     
   12    6   15 1     
   13    7    8 1     
   14    8    9 3     
   15    9   13 1     
@<TRIPOS>SUBSTRUCTURE
      1 ****           1
@<TRIPOS>SET
DONOR_HYDROGENS      STATIC     ATOMS    <user>   **** ""
2 14 15
ATOM$RED        STATIC     ATOMS    COLORGROUP SYSTEM
2 14 15
@<TRIPOS>COMMENT
> <Gold.Version>
2022.2.0

> <Gold.Id.Protein>
1qkm|1qkm_protein|mol2

> <Gold.Protein.RotatedTorsions>
[  496  491  490  487 ] final   46.04 input  -89.99 | X-H torsion

> <Gold.Protein.ActiveResidues>
 MET295  LEU298  THR299  LEU301  ALA302  GLU305  TRP335  MET336  LEU339  MET340 
 GLY342  LEU343  ARG346  PHE356  ILE373  ILE376  PHE377  LEU380  LYS471  GLY472 
 MET473  HIS475  LEU476  LEU477  ASN478  MET479  VAL484  VAL487 

> <Gold.Protein.RotatedAtoms>
   36.4442   33.5114   42.3668 H   0  0  0  0  0  0  0  0  0  0  0  0  # atno 496  bound_to 491 

> <Gold.Score>
     Score     S(PLP)   S(hbond)     S(cho)   S(metal)  DE(clash)   DE(tors)     intcor
     28.76     -28.76       0.00       0.00       0.00       0.00       0.00       0.00

> <Gold.PLP.Fitness>
28.7614

> <Gold.PLP.PLP>
-28.7614

> <Gold.PLP.part.hbond>
-0.3846

> <Gold.PLP.part.metal>
0.0000

> <Gold.PLP.part.buried>
-2.9462

> <Gold.PLP.part.nonpolar>
-25.1892

> <Gold.PLP.part.repulsive>
0.0989

> <Gold.PLP.ligand.clash>
0.0000

> <Gold.PLP.ligand.torsion>
0.0000

> <Gold.PLP.Chemscore.Hbond>
0.0000

> <Gold.PLP.Chemscore.CHOScore>
0.0000

> <Gold.PLP.Chemscore.Metal>
0.0000

> <Gold.PLP.Chemscore.Internal.Correction>
0.0000

