#       Name:                EN300-157046_i001
#       Creating user name   aseyller
#       Creation time:       Fri Apr 21 12:30:47 2023


#       File generated by GOLD software.
#

@<TRIPOS>MOLECULE
EN300-157046_i001|amine_1|mol2|76|dock9
    15    15     1
SMALL
USER_CHARGES


@<TRIPOS>ATOM
      1 C1          25.9592  37.8155  38.4884 C.3            1 <1>                0.0000
      2 C2          26.9805  36.9271  39.1508 C.2            1 <1>                0.0000
      3 N3          28.0096  36.4772  38.5025 N.2            1 <1>                0.0000
      4 S4          28.9209  35.5249  39.5679 S.3            1 <1>                0.0000
      5 C5          27.8885  35.7365  40.9275 C.2            1 <1>                0.0000
      6 N6          28.0500  35.2027  42.1976 N.pl3          1 <1>                0.0000
      7 C7          26.8651  36.5578  40.4856 C.2            1 <1>                0.0000
      8 C8          25.7838  36.9805  41.3238 C.1            1 <1>                0.0000
      9 C9          24.8972  37.3272  42.0110 C.1            1 <1>                0.0000
     10 H10         25.1738  37.2010  38.0486 H              1 <1>                0.0000
     11 H11         25.5241  38.4849  39.2305 H              1 <1>                0.0000
     12 H12         26.4412  38.4032  37.7071 H              1 <1>                0.0000
     13 H13         24.1043  37.6372  42.6256 H              1 <1>                0.0000
     14 H14         28.8150  34.6396  42.3934 H              1 <1>                0.0000
     15 H15         27.3978  35.3927  42.8900 H              1 <1>                0.0000
@<TRIPOS>BOND
    1    1    2 1     
    2    1   10 1     
    3    1   11 1     
    4    1   12 1     
    5    2    3 2     
    6    2    7 1     
    7    3    4 1     
    8    4    5 1     
    9    5    6 1     
   10    5    7 2     
   11    6   14 1     
   12    6   15 1     
   13    7    8 1     
   14    8    9 3     
   15    9   13 1     
@<TRIPOS>SUBSTRUCTURE
      1 ****           1
@<TRIPOS>SET
DONOR_HYDROGENS      STATIC     ATOMS    <user>   **** ""
2 14 15
ATOM$RED        STATIC     ATOMS    COLORGROUP SYSTEM
2 14 15
@<TRIPOS>COMMENT
> <Gold.Version>
2022.2.0

> <Gold.Id.Protein>
1qkm|1qkm_protein|mol2

> <Gold.Protein.RotatedTorsions>
[  496  491  490  487 ] final  -11.00 input  -89.99 | X-H torsion

> <Gold.Protein.ActiveResidues>
 MET295  LEU298  THR299  LEU301  ALA302  GLU305  TRP335  MET336  LEU339  MET340 
 GLY342  LEU343  ARG346  PHE356  ILE373  ILE376  PHE377  LEU380  LYS471  GLY472 
 MET473  HIS475  LEU476  LEU477  ASN478  MET479  VAL484  VAL487 

> <Gold.Protein.RotatedAtoms>
   36.2634   34.3624   42.1333 H   0  0  0  0  0  0  0  0  0  0  0  0  # atno 496  bound_to 491 

> <Gold.Score>
     Score     S(PLP)   S(hbond)     S(cho)   S(metal)  DE(clash)   DE(tors)     intcor
     31.64     -29.29       0.78       0.00       0.00       0.00       0.00       0.00

> <Gold.PLP.Fitness>
31.6412

> <Gold.PLP.PLP>
-29.2892

> <Gold.PLP.part.hbond>
-1.0000

> <Gold.PLP.part.metal>
0.0000

> <Gold.PLP.part.buried>
2.1360

> <Gold.PLP.part.nonpolar>
-31.2738

> <Gold.PLP.part.repulsive>
0.0956

> <Gold.PLP.ligand.clash>
0.0000

> <Gold.PLP.ligand.torsion>
0.0000

> <Gold.PLP.Chemscore.Hbond>
0.7840

> <Gold.PLP.Chemscore.CHOScore>
0.0000

> <Gold.PLP.Chemscore.Metal>
0.0000

> <Gold.Chemscore.Hbonds>
donor molecule, donor type, donor heavy atom, donor atom, acceptor molecule, acceptor atom, score
      L1  H     6    15       P1   582  0.78

> <Gold.PLP.Chemscore.Internal.Correction>
0.0000

