#       Name:                EN300-157046_i001
#       Creating user name   aseyller
#       Creation time:       Fri Apr 21 12:30:49 2023


#       File generated by GOLD software.
#

@<TRIPOS>MOLECULE
EN300-157046_i001|amine_1|mol2|76|dock19
    15    15     1
SMALL
USER_CHARGES


@<TRIPOS>ATOM
      1 C1          29.8011  37.6214  37.3307 C.3            1 <1>                0.0000
      2 C2          30.7988  37.8491  36.2244 C.2            1 <1>                0.0000
      3 N3          30.6569  38.8165  35.3724 N.2            1 <1>                0.0000
      4 S4          31.9606  38.7539  34.2914 S.3            1 <1>                0.0000
      5 C5          32.7213  37.3859  35.0047 C.2            1 <1>                0.0000
      6 N6          33.8952  36.7687  34.5980 N.pl3          1 <1>                0.0000
      7 C7          31.9154  37.0355  36.0746 C.2            1 <1>                0.0000
      8 C8          32.2016  35.9322  36.9414 C.1            1 <1>                0.0000
      9 C9          32.4361  35.0276  37.6521 C.1            1 <1>                0.0000
     10 H10         29.0204  36.9452  36.9824 H              1 <1>                0.0000
     11 H11         30.3062  37.1812  38.1904 H              1 <1>                0.0000
     12 H12         29.3552  38.5733  37.6193 H              1 <1>                0.0000
     13 H13         32.6460  34.2185  38.2877 H              1 <1>                0.0000
     14 H14         34.3806  37.1080  33.8299 H              1 <1>                0.0000
     15 H15         34.2306  35.9978  35.0818 H              1 <1>                0.0000
@<TRIPOS>BOND
    1    1    2 1     
    2    1   10 1     
    3    1   11 1     
    4    1   12 1     
    5    2    3 2     
    6    2    7 1     
    7    3    4 1     
    8    4    5 1     
    9    5    6 1     
   10    5    7 2     
   11    6   14 1     
   12    6   15 1     
   13    7    8 1     
   14    8    9 3     
   15    9   13 1     
@<TRIPOS>SUBSTRUCTURE
      1 ****           1
@<TRIPOS>SET
DONOR_HYDROGENS      STATIC     ATOMS    <user>   **** ""
2 14 15
ATOM$RED        STATIC     ATOMS    COLORGROUP SYSTEM
2 14 15
@<TRIPOS>COMMENT
> <Gold.Version>
2022.2.0

> <Gold.Id.Protein>
1qkm|1qkm_protein|mol2

> <Gold.Protein.RotatedTorsions>
[  496  491  490  487 ] final   65.38 input  -89.99 | X-H torsion

> <Gold.Protein.ActiveResidues>
 MET295  LEU298  THR299  LEU301  ALA302  GLU305  TRP335  MET336  LEU339  MET340 
 GLY342  LEU343  ARG346  PHE356  ILE373  ILE376  PHE377  LEU380  LYS471  GLY472 
 MET473  HIS475  LEU476  LEU477  ASN478  MET479  VAL484  VAL487 

> <Gold.Protein.RotatedAtoms>
   36.5970   33.2527   42.2663 H   0  0  0  0  0  0  0  0  0  0  0  0  # atno 496  bound_to 491 

> <Gold.Score>
     Score     S(PLP)   S(hbond)     S(cho)   S(metal)  DE(clash)   DE(tors)     intcor
     30.75     -27.75       1.00       0.00       0.00       0.00       0.00       0.00

> <Gold.PLP.Fitness>
30.7483

> <Gold.PLP.PLP>
-27.7483

> <Gold.PLP.part.hbond>
-1.0000

> <Gold.PLP.part.metal>
0.0000

> <Gold.PLP.part.buried>
-3.1867

> <Gold.PLP.part.nonpolar>
-23.3710

> <Gold.PLP.part.repulsive>
0.0844

> <Gold.PLP.ligand.clash>
0.0000

> <Gold.PLP.ligand.torsion>
0.0000

> <Gold.PLP.Chemscore.Hbond>
1.0000

> <Gold.PLP.Chemscore.CHOScore>
0.0000

> <Gold.PLP.Chemscore.Metal>
0.0000

> <Gold.Chemscore.Hbonds>
donor molecule, donor type, donor heavy atom, donor atom, acceptor molecule, acceptor atom, score
      L1  H     6    14       P1  3229  1.00

> <Gold.PLP.Chemscore.Internal.Correction>
0.0000

