#       Name:                EN300-157046_i001
#       Creating user name   aseyller
#       Creation time:       Fri Apr 21 12:30:48 2023


#       File generated by GOLD software.
#

@<TRIPOS>MOLECULE
EN300-157046_i001|amine_1|mol2|76|dock15
    15    15     1
SMALL
USER_CHARGES


@<TRIPOS>ATOM
      1 C1          29.7722  37.8473  37.7914 C.3            1 <1>                0.0000
      2 C2          28.2829  37.8443  38.0213 C.2            1 <1>                0.0000
      3 N3          27.4787  38.5222  37.2626 N.2            1 <1>                0.0000
      4 S4          25.8991  38.2734  37.8242 S.3            1 <1>                0.0000
      5 C5          26.3305  37.2262  39.1190 C.2            1 <1>                0.0000
      6 N6          25.4786  36.6219  40.0318 N.pl3          1 <1>                0.0000
      7 C7          27.7086  37.1103  39.0523 C.2            1 <1>                0.0000
      8 C8          28.4721  36.3148  39.9659 C.1            1 <1>                0.0000
      9 C9          29.0981  35.6626  40.7149 C.1            1 <1>                0.0000
     10 H10         30.2260  38.6587  38.3604 H              1 <1>                0.0000
     11 H11         30.1921  36.8958  38.1174 H              1 <1>                0.0000
     12 H12         29.9757  37.9898  36.7300 H              1 <1>                0.0000
     13 H13         29.6580  35.0792  41.3848 H              1 <1>                0.0000
     14 H14         24.5223  36.7747  39.9775 H              1 <1>                0.0000
     15 H15         25.8393  36.0465  40.7245 H              1 <1>                0.0000
@<TRIPOS>BOND
    1    1    2 1     
    2    1   10 1     
    3    1   11 1     
    4    1   12 1     
    5    2    3 2     
    6    2    7 1     
    7    3    4 1     
    8    4    5 1     
    9    5    6 1     
   10    5    7 2     
   11    6   14 1     
   12    6   15 1     
   13    7    8 1     
   14    8    9 3     
   15    9   13 1     
@<TRIPOS>SUBSTRUCTURE
      1 ****           1
@<TRIPOS>SET
DONOR_HYDROGENS      STATIC     ATOMS    <user>   **** ""
2 14 15
ATOM$RED        STATIC     ATOMS    COLORGROUP SYSTEM
2 14 15
@<TRIPOS>COMMENT
> <Gold.Version>
2022.2.0

> <Gold.Id.Protein>
1qkm|1qkm_protein|mol2

> <Gold.Protein.RotatedTorsions>
[  496  491  490  487 ] final   24.40 input  -89.99 | X-H torsion

> <Gold.Protein.ActiveResidues>
 MET295  LEU298  THR299  LEU301  ALA302  GLU305  TRP335  MET336  LEU339  MET340 
 GLY342  LEU343  ARG346  PHE356  ILE373  ILE376  PHE377  LEU380  LYS471  GLY472 
 MET473  HIS475  LEU476  LEU477  ASN478  MET479  VAL484  VAL487 

> <Gold.Protein.RotatedAtoms>
   36.3199   33.8432   42.3701 H   0  0  0  0  0  0  0  0  0  0  0  0  # atno 496  bound_to 491 

> <Gold.Score>
     Score     S(PLP)   S(hbond)     S(cho)   S(metal)  DE(clash)   DE(tors)     intcor
     24.79     -23.00       0.60       0.00       0.00       0.00       0.00       0.00

> <Gold.PLP.Fitness>
24.7919

> <Gold.PLP.PLP>
-22.9971

> <Gold.PLP.part.hbond>
-0.9798

> <Gold.PLP.part.metal>
0.0000

> <Gold.PLP.part.buried>
-1.7731

> <Gold.PLP.part.nonpolar>
-21.0479

> <Gold.PLP.part.repulsive>
0.1059

> <Gold.PLP.ligand.clash>
0.0000

> <Gold.PLP.ligand.torsion>
0.0000

> <Gold.PLP.Chemscore.Hbond>
0.5983

> <Gold.PLP.Chemscore.CHOScore>
0.0000

> <Gold.PLP.Chemscore.Metal>
0.0000

> <Gold.Chemscore.Hbonds>
donor molecule, donor type, donor heavy atom, donor atom, acceptor molecule, acceptor atom, score
      L1  H     6    14       P1  1131  0.60

> <Gold.PLP.Chemscore.Internal.Correction>
0.0000

