#       Name:                plp ligand
#       Creating user name   aseyller
#       Creation time:       Fri Apr 21 12:30:45 2023


#       File generated by GOLD software.
#

@<TRIPOS>MOLECULE
plp ligand
    15    15     1
SMALL
USER_CHARGES


@<TRIPOS>ATOM
      1 C1          -0.4469   2.2790  -0.0015 NONPOLAR       1 <1>                0.0000
      2 C2           0.5465   1.1458  -0.0009 NONPOLAR       1 <1>                0.0000
      3 N3           1.8247   1.3651   0.0016 ACCEPTOR       1 <1>                0.0000
      4 S4           2.6108  -0.1363   0.0022 NONPOLAR       1 <1>                0.0000
      5 C5           1.1791  -1.0899  -0.0011 NONPOLAR       1 <1>                0.0000
      6 N6           1.0903  -2.4742  -0.0018 DONOR          1 <1>                0.0000
      7 C7           0.1343  -0.1814   0.0029 NONPOLAR       1 <1>                0.0000
      8 C8          -1.2431  -0.5729   0.0026 NONPOLAR       1 <1>                0.0000
      9 C9          -2.3724  -0.8939   0.0023 NONPOLAR       1 <1>                0.0000
     10 H10         -0.6849   2.5530  -1.0293                1 <1>                0.0000
     11 H11         -1.3564   1.9651   0.5107                1 <1>                0.0000
     12 H12         -0.0179   3.1385   0.5136                1 <1>                0.0000
     13 H13         -3.3824  -1.1810   0.0021                1 <1>                0.0000
     14 H14          1.8975  -3.0120  -0.0003                1 <1>                0.0000
     15 H15          0.2209  -2.9044  -0.0036                1 <1>                0.0000
@<TRIPOS>BOND
    1    1    2 1     
    2    1   10 1     
    3    1   11 1     
    4    1   12 1     
    5    2    3 2     
    6    2    7 1     
    7    3    4 1     
    8    4    5 1     
    9    5    6 1     
   10    5    7 2     
   11    6   14 1     
   12    6   15 1     
   13    7    8 1     
   14    8    9 3     
   15    9   13 1     
@<TRIPOS>SUBSTRUCTURE
      1 ****           1
@<TRIPOS>SET
DONOR_HYDROGENS      STATIC     ATOMS    <user>   **** ""
2 14 15
ATOM$RED        STATIC     ATOMS    COLORGROUP SYSTEM
2 14 15
