#       Name:                EN300-88128_i001
#       Creating user name   aseyller
#       Creation time:       Fri Apr 21 17:10:54 2023


#       File generated by GOLD software.
#

@<TRIPOS>MOLECULE
EN300-88128_i001|benzaldehydes|mol2|192|dock13
    17    17     1
SMALL
USER_CHARGES


@<TRIPOS>ATOM
      1 C1          30.8251  37.6712  36.2918 C.3            1 <1>                0.0000
      2 O2          30.8048  37.2430  37.6550 O.3            1 <1>                0.0000
      3 C3          29.5916  37.1364  38.2481 C.ar           1 <1>                0.0000
      4 C4          29.5131  36.7487  39.5830 C.ar           1 <1>                0.0000
      5 C5          28.2867  36.6418  40.1810 C.ar           1 <1>                0.0000
      6 C6          27.1422  36.9301  39.4178 C.ar           1 <1>                0.0000
      7 C7          25.8035  36.8305  40.0139 C.2            1 <1>                0.0000
      8 O8          25.6788  36.7767  41.2191 O.2            1 <1>                0.0000
      9 C9          27.2981  37.3137  38.0820 C.ar           1 <1>                0.0000
     10 N10         28.4987  37.4078  37.5505 N.ar           1 <1>                0.0000
     11 H11         31.8558  37.7140  35.9398 H              1 <1>                0.0000
     12 H12         30.2615  36.9659  35.6810 H              1 <1>                0.0000
     13 H13         30.3734  38.6602  36.2149 H              1 <1>                0.0000
     14 H14         30.4122  36.5339  40.1416 H              1 <1>                0.0000
     15 H15         28.2003  36.3425  41.2151 H              1 <1>                0.0000
     16 H16         24.9301  36.8049  39.3789 H              1 <1>                0.0000
     17 H17         26.4275  37.5379  37.4834 H              1 <1>                0.0000
@<TRIPOS>BOND
    1    1    2 1     
    2    1   11 1     
    3    1   12 1     
    4    1   13 1     
    5    2    3 1     
    6    3    4 ar    
    7    3   10 ar    
    8    4    5 ar    
    9    4   14 1     
   10    5    6 ar    
   11    5   15 1     
   12    6    7 1     
   13    6    9 ar    
   14    7    8 2     
   15    7   16 1     
   16    9   10 ar    
   17    9   17 1     
@<TRIPOS>SUBSTRUCTURE
      1 ****           1
@<TRIPOS>COMMENT
> <Gold.Version>
2022.2.0

> <Gold.Id.Protein>
1qkm|1qkm_protein|mol2

> <Gold.Protein.RotatedTorsions>
[  496  491  490  487 ] final   61.98 input  -89.99 | X-H torsion

> <Gold.Protein.ActiveResidues>
 MET295  LEU298  THR299  LEU301  ALA302  GLU305  TRP335  MET336  LEU339  MET340 
 GLY342  LEU343  ARG346  PHE356  ILE373  ILE376  PHE377  LEU380  LYS471  GLY472 
 MET473  HIS475  LEU476  LEU477  ASN478  MET479  VAL484  VAL487 

> <Gold.Protein.RotatedAtoms>
   36.5680   33.2942   42.2903 H   0  0  0  0  0  0  0  0  0  0  0  0  # atno 496  bound_to 491 

> <Gold.Score>
     Score     S(PLP)   S(hbond)     S(cho)   S(metal)  DE(clash)   DE(tors)     intcor
     30.11     -30.22       0.00       0.00       0.00       0.00       0.05       0.00

> <Gold.PLP.Fitness>
30.1138

> <Gold.PLP.PLP>
-30.2224

> <Gold.PLP.part.hbond>
0.0000

> <Gold.PLP.part.metal>
0.0000

> <Gold.PLP.part.buried>
-4.0184

> <Gold.PLP.part.nonpolar>
-26.6195

> <Gold.PLP.part.repulsive>
0.2003

> <Gold.PLP.ligand.clash>
0.0000

> <Gold.PLP.ligand.torsion>
0.0543

> <Gold.PLP.Chemscore.Hbond>
0.0000

> <Gold.PLP.Chemscore.CHOScore>
0.0000

> <Gold.PLP.Chemscore.Metal>
0.0000

> <Gold.PLP.Chemscore.Internal.Correction>
0.0001

