#       Name:                EN300-88128_i001
#       Creating user name   aseyller
#       Creation time:       Fri Apr 21 17:10:50 2023


#       File generated by GOLD software.
#

@<TRIPOS>MOLECULE
EN300-88128_i001|benzaldehydes|mol2|192|dock1
    17    17     1
SMALL
USER_CHARGES


@<TRIPOS>ATOM
      1 C1          31.2358  36.3460  38.1350 C.3            1 <1>                0.0000
      2 O2          30.6077  35.6011  39.1803 O.3            1 <1>                0.0000
      3 C3          29.3560  35.9767  39.5366 C.ar           1 <1>                0.0000
      4 C4          28.5166  36.5519  38.5864 C.ar           1 <1>                0.0000
      5 C5          27.2520  36.9306  38.9478 C.ar           1 <1>                0.0000
      6 C6          26.8448  36.7227  40.2769 C.ar           1 <1>                0.0000
      7 C7          25.4975  37.1116  40.7138 C.2            1 <1>                0.0000
      8 O8          25.1758  36.9815  41.8760 O.2            1 <1>                0.0000
      9 C9          27.7425  36.1393  41.1766 C.ar           1 <1>                0.0000
     10 N10         28.9478  35.7863  40.7824 N.ar           1 <1>                0.0000
     11 H11         32.2312  35.9426  37.9489 H              1 <1>                0.0000
     12 H12         30.6381  36.2720  37.2265 H              1 <1>                0.0000
     13 H13         31.3171  37.3915  38.4322 H              1 <1>                0.0000
     14 H14         28.8605  36.6982  37.5731 H              1 <1>                0.0000
     15 H15         26.5827  37.3791  38.2285 H              1 <1>                0.0000
     16 H16         24.7932  37.5131  40.0002 H              1 <1>                0.0000
     17 H17         27.4435  35.9738  42.2011 H              1 <1>                0.0000
@<TRIPOS>BOND
    1    1    2 1     
    2    1   11 1     
    3    1   12 1     
    4    1   13 1     
    5    2    3 1     
    6    3    4 ar    
    7    3   10 ar    
    8    4    5 ar    
    9    4   14 1     
   10    5    6 ar    
   11    5   15 1     
   12    6    7 1     
   13    6    9 ar    
   14    7    8 2     
   15    7   16 1     
   16    9   10 ar    
   17    9   17 1     
@<TRIPOS>SUBSTRUCTURE
      1 ****           1
@<TRIPOS>COMMENT
> <Gold.Version>
2022.2.0

> <Gold.Id.Protein>
1qkm|1qkm_protein|mol2

> <Gold.Protein.RotatedTorsions>
[  496  491  490  487 ] final   96.36 input  -89.99 | X-H torsion

> <Gold.Protein.ActiveResidues>
 MET295  LEU298  THR299  LEU301  ALA302  GLU305  TRP335  MET336  LEU339  MET340 
 GLY342  LEU343  ARG346  PHE356  ILE373  ILE376  PHE377  LEU380  LYS471  GLY472 
 MET473  HIS475  LEU476  LEU477  ASN478  MET479  VAL484  VAL487 

> <Gold.Protein.RotatedAtoms>
   36.8787   32.9853   41.9455 H   0  0  0  0  0  0  0  0  0  0  0  0  # atno 496  bound_to 491 

> <Gold.Score>
     Score     S(PLP)   S(hbond)     S(cho)   S(metal)  DE(clash)   DE(tors)     intcor
     35.94     -32.54       0.38       1.00       0.00       0.00       0.38       0.00

> <Gold.PLP.Fitness>
35.9402

> <Gold.PLP.PLP>
-32.5425

> <Gold.PLP.part.hbond>
-1.0000

> <Gold.PLP.part.metal>
0.0000

> <Gold.PLP.part.buried>
-5.3348

> <Gold.PLP.part.nonpolar>
-27.8850

> <Gold.PLP.part.repulsive>
0.5052

> <Gold.PLP.ligand.clash>
0.0000

> <Gold.PLP.ligand.torsion>
0.3772

> <Gold.PLP.Chemscore.Hbond>
0.3840

> <Gold.PLP.Chemscore.CHOScore>
1.0000

> <Gold.PLP.Chemscore.Metal>
0.0000

> <Gold.Chemscore.Hbonds>
donor molecule, donor type, donor heavy atom, donor atom, acceptor molecule, acceptor atom, score
      P1  H  1258  1270       L1     8  0.38
      L1  C     9    17       P1   582  1.00

> <Gold.PLP.Chemscore.Internal.Correction>
0.0001

