#       Name:                EN300-88128_i001
#       Creating user name   aseyller
#       Creation time:       Fri Apr 21 17:10:55 2023


#       File generated by GOLD software.
#

@<TRIPOS>MOLECULE
EN300-88128_i001|benzaldehydes|mol2|192|dock14
    17    17     1
SMALL
USER_CHARGES


@<TRIPOS>ATOM
      1 C1          31.1858  35.0341  38.8252 C.3            1 <1>                0.0000
      2 O2          29.9255  35.4420  38.2890 O.3            1 <1>                0.0000
      3 C3          28.9735  35.8201  39.1752 C.ar           1 <1>                0.0000
      4 C4          27.6396  35.8486  38.7775 C.ar           1 <1>                0.0000
      5 C5          26.6787  36.2305  39.6742 C.ar           1 <1>                0.0000
      6 C6          27.0786  36.5828  40.9748 C.ar           1 <1>                0.0000
      7 C7          26.0855  36.9990  41.9736 C.2            1 <1>                0.0000
      8 O8          24.9102  36.7562  41.7980 O.2            1 <1>                0.0000
      9 C9          28.4371  36.5303  41.3030 C.ar           1 <1>                0.0000
     10 N10         29.3255  36.1519  40.4085 N.ar           1 <1>                0.0000
     11 H11         31.8550  34.7578  38.0104 H              1 <1>                0.0000
     12 H12         31.6229  35.8565  39.3915 H              1 <1>                0.0000
     13 H13         31.0406  34.1770  39.4827 H              1 <1>                0.0000
     14 H14         27.3655  35.5721  37.7701 H              1 <1>                0.0000
     15 H15         25.6375  36.2608  39.3890 H              1 <1>                0.0000
     16 H16         26.4017  37.5215  42.8644 H              1 <1>                0.0000
     17 H17         28.7589  36.7985  42.2984 H              1 <1>                0.0000
@<TRIPOS>BOND
    1    1    2 1     
    2    1   11 1     
    3    1   12 1     
    4    1   13 1     
    5    2    3 1     
    6    3    4 ar    
    7    3   10 ar    
    8    4    5 ar    
    9    4   14 1     
   10    5    6 ar    
   11    5   15 1     
   12    6    7 1     
   13    6    9 ar    
   14    7    8 2     
   15    7   16 1     
   16    9   10 ar    
   17    9   17 1     
@<TRIPOS>SUBSTRUCTURE
      1 ****           1
@<TRIPOS>COMMENT
> <Gold.Version>
2022.2.0

> <Gold.Id.Protein>
1qkm|1qkm_protein|mol2

> <Gold.Protein.RotatedTorsions>
[  496  491  490  487 ] final  -40.00 input  -89.99 | X-H torsion

> <Gold.Protein.ActiveResidues>
 MET295  LEU298  THR299  LEU301  ALA302  GLU305  TRP335  MET336  LEU339  MET340 
 GLY342  LEU343  ARG346  PHE356  ILE373  ILE376  PHE377  LEU380  LYS471  GLY472 
 MET473  HIS475  LEU476  LEU477  ASN478  MET479  VAL484  VAL487 

> <Gold.Protein.RotatedAtoms>
   36.3633   34.6500   41.7723 H   0  0  0  0  0  0  0  0  0  0  0  0  # atno 496  bound_to 491 

> <Gold.Score>
     Score     S(PLP)   S(hbond)     S(cho)   S(metal)  DE(clash)   DE(tors)     intcor
     32.93     -31.89       0.56       0.00       0.00       0.00       0.32       0.00

> <Gold.PLP.Fitness>
32.9276

> <Gold.PLP.PLP>
-31.8884

> <Gold.PLP.part.hbond>
-1.0000

> <Gold.PLP.part.metal>
0.0000

> <Gold.PLP.part.buried>
-2.4155

> <Gold.PLP.part.nonpolar>
-29.4810

> <Gold.PLP.part.repulsive>
0.4319

> <Gold.PLP.ligand.clash>
0.0000

> <Gold.PLP.ligand.torsion>
0.3205

> <Gold.PLP.Chemscore.Hbond>
0.5600

> <Gold.PLP.Chemscore.CHOScore>
0.0000

> <Gold.PLP.Chemscore.Metal>
0.0000

> <Gold.Chemscore.Hbonds>
donor molecule, donor type, donor heavy atom, donor atom, acceptor molecule, acceptor atom, score
      P1  H  1258  1270       L1     8  0.56

> <Gold.PLP.Chemscore.Internal.Correction>
0.0001

