#       Name:                EN300-88128_i001
#       Creating user name   aseyller
#       Creation time:       Fri Apr 21 17:10:52 2023


#       File generated by GOLD software.
#

@<TRIPOS>MOLECULE
EN300-88128_i001|benzaldehydes|mol2|192|dock5
    17    17     1
SMALL
USER_CHARGES


@<TRIPOS>ATOM
      1 C1          32.9917  36.5885  35.8612 C.3            1 <1>                0.0000
      2 O2          31.8274  37.3847  36.0899 O.3            1 <1>                0.0000
      3 C3          31.0829  37.0862  37.1814 C.ar           1 <1>                0.0000
      4 C4          29.9169  37.8043  37.4329 C.ar           1 <1>                0.0000
      5 C5          29.1655  37.5013  38.5360 C.ar           1 <1>                0.0000
      6 C6          29.6034  36.4670  39.3810 C.ar           1 <1>                0.0000
      7 C7          28.8319  36.1037  40.5769 C.2            1 <1>                0.0000
      8 O8          27.8042  36.6926  40.8377 O.2            1 <1>                0.0000
      9 C9          30.7851  35.7890  39.0651 C.ar           1 <1>                0.0000
     10 N10         31.4727  36.1121  37.9901 N.ar           1 <1>                0.0000
     11 H11         33.4950  36.9319  34.9574 H              1 <1>                0.0000
     12 H12         33.6679  36.6811  36.7111 H              1 <1>                0.0000
     13 H13         32.7004  35.5451  35.7407 H              1 <1>                0.0000
     14 H14         29.6083  38.5937  36.7636 H              1 <1>                0.0000
     15 H15         28.2574  38.0444  38.7523 H              1 <1>                0.0000
     16 H16         29.1799  35.3122  41.2243 H              1 <1>                0.0000
     17 H17         31.1339  34.9924  39.7055 H              1 <1>                0.0000
@<TRIPOS>BOND
    1    1    2 1     
    2    1   11 1     
    3    1   12 1     
    4    1   13 1     
    5    2    3 1     
    6    3    4 ar    
    7    3   10 ar    
    8    4    5 ar    
    9    4   14 1     
   10    5    6 ar    
   11    5   15 1     
   12    6    7 1     
   13    6    9 ar    
   14    7    8 2     
   15    7   16 1     
   16    9   10 ar    
   17    9   17 1     
@<TRIPOS>SUBSTRUCTURE
      1 ****           1
@<TRIPOS>COMMENT
> <Gold.Version>
2022.2.0

> <Gold.Id.Protein>
1qkm|1qkm_protein|mol2

> <Gold.Protein.RotatedTorsions>
[  496  491  490  487 ] final   69.73 input  -89.99 | X-H torsion

> <Gold.Protein.ActiveResidues>
 MET295  LEU298  THR299  LEU301  ALA302  GLU305  TRP335  MET336  LEU339  MET340 
 GLY342  LEU343  ARG346  PHE356  ILE373  ILE376  PHE377  LEU380  LYS471  GLY472 
 MET473  HIS475  LEU476  LEU477  ASN478  MET479  VAL484  VAL487 

> <Gold.Protein.RotatedAtoms>
   36.6350   33.2028   42.2321 H   0  0  0  0  0  0  0  0  0  0  0  0  # atno 496  bound_to 491 

> <Gold.Score>
     Score     S(PLP)   S(hbond)     S(cho)   S(metal)  DE(clash)   DE(tors)     intcor
     31.14     -28.22       0.00       0.97       0.00       0.00       0.00       0.00

> <Gold.PLP.Fitness>
31.1411

> <Gold.PLP.PLP>
-28.2227

> <Gold.PLP.part.hbond>
0.0000

> <Gold.PLP.part.metal>
0.0000

> <Gold.PLP.part.buried>
-2.2909

> <Gold.PLP.part.nonpolar>
-25.4099

> <Gold.PLP.part.repulsive>
0.1301

> <Gold.PLP.ligand.clash>
0.0000

> <Gold.PLP.ligand.torsion>
0.0033

> <Gold.PLP.Chemscore.Hbond>
0.0000

> <Gold.PLP.Chemscore.CHOScore>
0.9749

> <Gold.PLP.Chemscore.Metal>
0.0000

> <Gold.Chemscore.Hbonds>
donor molecule, donor type, donor heavy atom, donor atom, acceptor molecule, acceptor atom, score
      L1  C     9    17       P1   470  0.97

> <Gold.PLP.Chemscore.Internal.Correction>
0.0001

