#       Name:                EN300-88128_i001
#       Creating user name   aseyller
#       Creation time:       Fri Apr 21 17:10:51 2023


#       File generated by GOLD software.
#

@<TRIPOS>MOLECULE
EN300-88128_i001|benzaldehydes|mol2|192|dock4
    17    17     1
SMALL
USER_CHARGES


@<TRIPOS>ATOM
      1 C1          30.8326  37.1608  37.5830 C.3            1 <1>                0.0000
      2 O2          30.5556  36.4476  38.7899 O.3            1 <1>                0.0000
      3 C3          29.3089  36.5712  39.3049 C.ar           1 <1>                0.0000
      4 C4          29.0912  36.2830  40.6496 C.ar           1 <1>                0.0000
      5 C5          27.8311  36.4089  41.1686 C.ar           1 <1>                0.0000
      6 C6          26.7947  36.8280  40.3167 C.ar           1 <1>                0.0000
      7 C7          25.4253  36.9787  40.8260 C.2            1 <1>                0.0000
      8 O8          25.2221  37.0022  42.0215 O.2            1 <1>                0.0000
      9 C9          27.0880  37.0999  38.9766 C.ar           1 <1>                0.0000
     10 N10         28.3167  36.9696  38.5227 N.ar           1 <1>                0.0000
     11 H11         31.8631  36.9756  37.2798 H              1 <1>                0.0000
     12 H12         30.1564  36.8226  36.7978 H              1 <1>                0.0000
     13 H13         30.6895  38.2282  37.7507 H              1 <1>                0.0000
     14 H14         29.9096  35.9628  41.2774 H              1 <1>                0.0000
     15 H15         27.6375  36.1907  42.2085 H              1 <1>                0.0000
     16 H16         24.5993  37.0684  40.1359 H              1 <1>                0.0000
     17 H17         26.3016  37.4224  38.3104 H              1 <1>                0.0000
@<TRIPOS>BOND
    1    1    2 1     
    2    1   11 1     
    3    1   12 1     
    4    1   13 1     
    5    2    3 1     
    6    3    4 ar    
    7    3   10 ar    
    8    4    5 ar    
    9    4   14 1     
   10    5    6 ar    
   11    5   15 1     
   12    6    7 1     
   13    6    9 ar    
   14    7    8 2     
   15    7   16 1     
   16    9   10 ar    
   17    9   17 1     
@<TRIPOS>SUBSTRUCTURE
      1 ****           1
@<TRIPOS>COMMENT
> <Gold.Version>
2022.2.0

> <Gold.Id.Protein>
1qkm|1qkm_protein|mol2

> <Gold.Protein.RotatedTorsions>
[  496  491  490  487 ] final   48.30 input  -89.99 | X-H torsion

> <Gold.Protein.ActiveResidues>
 MET295  LEU298  THR299  LEU301  ALA302  GLU305  TRP335  MET336  LEU339  MET340 
 GLY342  LEU343  ARG346  PHE356  ILE373  ILE376  PHE377  LEU380  LYS471  GLY472 
 MET473  HIS475  LEU476  LEU477  ASN478  MET479  VAL484  VAL487 

> <Gold.Protein.RotatedAtoms>
   36.4603   33.4788   42.3597 H   0  0  0  0  0  0  0  0  0  0  0  0  # atno 496  bound_to 491 

> <Gold.Score>
     Score     S(PLP)   S(hbond)     S(cho)   S(metal)  DE(clash)   DE(tors)     intcor
     33.34     -33.00       0.34       0.00       0.00       0.00       0.34       0.00

> <Gold.PLP.Fitness>
33.3366

> <Gold.PLP.PLP>
-33.0041

> <Gold.PLP.part.hbond>
-1.0000

> <Gold.PLP.part.metal>
0.0000

> <Gold.PLP.part.buried>
-4.0491

> <Gold.PLP.part.nonpolar>
-29.3984

> <Gold.PLP.part.repulsive>
0.4079

> <Gold.PLP.ligand.clash>
0.0000

> <Gold.PLP.ligand.torsion>
0.3378

> <Gold.PLP.Chemscore.Hbond>
0.3360

> <Gold.PLP.Chemscore.CHOScore>
0.0000

> <Gold.PLP.Chemscore.Metal>
0.0000

> <Gold.Chemscore.Hbonds>
donor molecule, donor type, donor heavy atom, donor atom, acceptor molecule, acceptor atom, score
      P1  H  1258  1270       L1     8  0.34

> <Gold.PLP.Chemscore.Internal.Correction>
0.0001

