#       Name:                EN300-88128_i001
#       Creating user name   aseyller
#       Creation time:       Fri Apr 21 17:10:54 2023


#       File generated by GOLD software.
#

@<TRIPOS>MOLECULE
EN300-88128_i001|benzaldehydes|mol2|192|dock12
    17    17     1
SMALL
USER_CHARGES


@<TRIPOS>ATOM
      1 C1          30.8805  36.8944  37.7920 C.3            1 <1>                0.0000
      2 O2          29.4796  36.8828  37.5099 O.3            1 <1>                0.0000
      3 C3          28.6390  36.8403  38.5712 C.ar           1 <1>                0.0000
      4 C4          27.2642  36.8992  38.3593 C.ar           1 <1>                0.0000
      5 C5          26.4161  36.8557  39.4326 C.ar           1 <1>                0.0000
      6 C6          26.9702  36.7523  40.7201 C.ar           1 <1>                0.0000
      7 C7          26.1022  36.7018  41.9039 C.2            1 <1>                0.0000
      8 O8          24.8965  36.7184  41.7731 O.2            1 <1>                0.0000
      9 C9          28.3610  36.6979  40.8564 C.ar           1 <1>                0.0000
     10 N10         29.1375  36.7379  39.7943 N.ar           1 <1>                0.0000
     11 H11         31.4391  36.9292  36.8567 H              1 <1>                0.0000
     12 H12         31.1229  37.7709  38.3929 H              1 <1>                0.0000
     13 H13         31.1479  35.9919  38.3416 H              1 <1>                0.0000
     14 H14         26.8706  36.9788  37.3567 H              1 <1>                0.0000
     15 H15         25.3460  36.9002  39.2934 H              1 <1>                0.0000
     16 H16         26.5375  36.6499  42.8910 H              1 <1>                0.0000
     17 H17         28.8007  36.6188  41.8396 H              1 <1>                0.0000
@<TRIPOS>BOND
    1    1    2 1     
    2    1   11 1     
    3    1   12 1     
    4    1   13 1     
    5    2    3 1     
    6    3    4 ar    
    7    3   10 ar    
    8    4    5 ar    
    9    4   14 1     
   10    5    6 ar    
   11    5   15 1     
   12    6    7 1     
   13    6    9 ar    
   14    7    8 2     
   15    7   16 1     
   16    9   10 ar    
   17    9   17 1     
@<TRIPOS>SUBSTRUCTURE
      1 ****           1
@<TRIPOS>COMMENT
> <Gold.Version>
2022.2.0

> <Gold.Id.Protein>
1qkm|1qkm_protein|mol2

> <Gold.Protein.RotatedTorsions>
[  496  491  490  487 ] final  -52.38 input  -89.99 | X-H torsion

> <Gold.Protein.ActiveResidues>
 MET295  LEU298  THR299  LEU301  ALA302  GLU305  TRP335  MET336  LEU339  MET340 
 GLY342  LEU343  ARG346  PHE356  ILE373  ILE376  PHE377  LEU380  LYS471  GLY472 
 MET473  HIS475  LEU476  LEU477  ASN478  MET479  VAL484  VAL487 

> <Gold.Protein.RotatedAtoms>
   36.4409   34.7132   41.5953 H   0  0  0  0  0  0  0  0  0  0  0  0  # atno 496  bound_to 491 

> <Gold.Score>
     Score     S(PLP)   S(hbond)     S(cho)   S(metal)  DE(clash)   DE(tors)     intcor
     31.91     -30.16       0.59       0.00       0.00       0.00       0.01       0.00

> <Gold.PLP.Fitness>
31.9078

> <Gold.PLP.PLP>
-30.1583

> <Gold.PLP.part.hbond>
-1.0000

> <Gold.PLP.part.metal>
0.0000

> <Gold.PLP.part.buried>
-1.7577

> <Gold.PLP.part.nonpolar>
-27.9653

> <Gold.PLP.part.repulsive>
0.3553

> <Gold.PLP.ligand.clash>
0.0000

> <Gold.PLP.ligand.torsion>
0.0133

> <Gold.PLP.Chemscore.Hbond>
0.5920

> <Gold.PLP.Chemscore.CHOScore>
0.0000

> <Gold.PLP.Chemscore.Metal>
0.0000

> <Gold.Chemscore.Hbonds>
donor molecule, donor type, donor heavy atom, donor atom, acceptor molecule, acceptor atom, score
      P1  H  1258  1270       L1     8  0.59

> <Gold.PLP.Chemscore.Internal.Correction>
0.0001

