#       Name:                EN300-88128_i001
#       Creating user name   aseyller
#       Creation time:       Fri Apr 21 17:10:54 2023


#       File generated by GOLD software.
#

@<TRIPOS>MOLECULE
EN300-88128_i001|benzaldehydes|mol2|192|dock11
    17    17     1
SMALL
USER_CHARGES


@<TRIPOS>ATOM
      1 C1          30.5986  35.3502  38.1228 C.3            1 <1>                0.0000
      2 O2          30.2919  35.3533  39.5186 O.3            1 <1>                0.0000
      3 C3          29.0519  35.7660  39.8749 C.ar           1 <1>                0.0000
      4 C4          28.8057  36.1362  41.1942 C.ar           1 <1>                0.0000
      5 C5          27.5524  36.5534  41.5526 C.ar           1 <1>                0.0000
      6 C6          26.5520  36.5926  40.5661 C.ar           1 <1>                0.0000
      7 C7          25.1914  37.0333  40.9005 C.2            1 <1>                0.0000
      8 O8          24.8433  37.0998  42.0604 O.2            1 <1>                0.0000
      9 C9          26.8727  36.2058  39.2609 C.ar           1 <1>                0.0000
     10 N10         28.0938  35.8162  38.9614 N.ar           1 <1>                0.0000
     11 H11         31.6200  34.9992  37.9760 H              1 <1>                0.0000
     12 H12         29.9081  34.6878  37.6007 H              1 <1>                0.0000
     13 H13         30.5013  36.3612  37.7272 H              1 <1>                0.0000
     14 H14         29.5966  36.0943  41.9284 H              1 <1>                0.0000
     15 H15         27.3370  36.8452  42.5699 H              1 <1>                0.0000
     16 H16         24.5007  37.2979  40.1134 H              1 <1>                0.0000
     17 H17         26.1140  36.2305  38.4927 H              1 <1>                0.0000
@<TRIPOS>BOND
    1    1    2 1     
    2    1   11 1     
    3    1   12 1     
    4    1   13 1     
    5    2    3 1     
    6    3    4 ar    
    7    3   10 ar    
    8    4    5 ar    
    9    4   14 1     
   10    5    6 ar    
   11    5   15 1     
   12    6    7 1     
   13    6    9 ar    
   14    7    8 2     
   15    7   16 1     
   16    9   10 ar    
   17    9   17 1     
@<TRIPOS>SUBSTRUCTURE
      1 ****           1
@<TRIPOS>COMMENT
> <Gold.Version>
2022.2.0

> <Gold.Id.Protein>
1qkm|1qkm_protein|mol2

> <Gold.Protein.RotatedTorsions>
[  496  491  490  487 ] final   63.32 input  -89.99 | X-H torsion

> <Gold.Protein.ActiveResidues>
 MET295  LEU298  THR299  LEU301  ALA302  GLU305  TRP335  MET336  LEU339  MET340 
 GLY342  LEU343  ARG346  PHE356  ILE373  ILE376  PHE377  LEU380  LYS471  GLY472 
 MET473  HIS475  LEU476  LEU477  ASN478  MET479  VAL484  VAL487 

> <Gold.Protein.RotatedAtoms>
   36.5793   33.2777   42.2812 H   0  0  0  0  0  0  0  0  0  0  0  0  # atno 496  bound_to 491 

> <Gold.Score>
     Score     S(PLP)   S(hbond)     S(cho)   S(metal)  DE(clash)   DE(tors)     intcor
     32.31     -31.87       0.34       0.00       0.00       0.00       0.28       0.00

> <Gold.PLP.Fitness>
32.3121

> <Gold.PLP.PLP>
-31.8692

> <Gold.PLP.part.hbond>
-0.0032

> <Gold.PLP.part.metal>
0.0000

> <Gold.PLP.part.buried>
-3.6708

> <Gold.PLP.part.nonpolar>
-30.2269

> <Gold.PLP.part.repulsive>
1.2865

> <Gold.PLP.ligand.clash>
0.0000

> <Gold.PLP.ligand.torsion>
0.2826

> <Gold.PLP.Chemscore.Hbond>
0.3360

> <Gold.PLP.Chemscore.CHOScore>
0.0000

> <Gold.PLP.Chemscore.Metal>
0.0000

> <Gold.Chemscore.Hbonds>
donor molecule, donor type, donor heavy atom, donor atom, acceptor molecule, acceptor atom, score
      P1  H  1258  1270       L1     8  0.34

> <Gold.PLP.Chemscore.Internal.Correction>
0.0001

