#       Name:                EN300-88128_i001
#       Creating user name   aseyller
#       Creation time:       Fri Apr 21 17:10:57 2023


#       File generated by GOLD software.
#

@<TRIPOS>MOLECULE
EN300-88128_i001|benzaldehydes|mol2|192|dock20
    17    17     1
SMALL
USER_CHARGES


@<TRIPOS>ATOM
      1 C1          31.8120  35.2266  38.7040 C.3            1 <1>                0.0000
      2 O2          31.1140  36.2379  37.9744 O.3            1 <1>                0.0000
      3 C3          29.8174  36.4496  38.3039 C.ar           1 <1>                0.0000
      4 C4          29.0613  37.3548  37.5640 C.ar           1 <1>                0.0000
      5 C5          27.7512  37.5675  37.8979 C.ar           1 <1>                0.0000
      6 C6          27.2135  36.8574  38.9853 C.ar           1 <1>                0.0000
      7 C7          25.8127  37.0502  39.3828 C.2            1 <1>                0.0000
      8 O8          25.4995  36.9826  40.5526 O.2            1 <1>                0.0000
      9 C9          28.0331  35.9641  39.6824 C.ar           1 <1>                0.0000
     10 N10         29.2868  35.7883  39.3218 N.ar           1 <1>                0.0000
     11 H11         32.8378  35.1597  38.3415 H              1 <1>                0.0000
     12 H12         31.8170  35.4813  39.7638 H              1 <1>                0.0000
     13 H13         31.3136  34.2676  38.5632 H              1 <1>                0.0000
     14 H14         29.5049  37.8848  36.7341 H              1 <1>                0.0000
     15 H15         27.1447  38.2649  37.3392 H              1 <1>                0.0000
     16 H16         25.0616  37.2519  38.6334 H              1 <1>                0.0000
     17 H17         27.6336  35.4120  40.5202 H              1 <1>                0.0000
@<TRIPOS>BOND
    1    1    2 1     
    2    1   11 1     
    3    1   12 1     
    4    1   13 1     
    5    2    3 1     
    6    3    4 ar    
    7    3   10 ar    
    8    4    5 ar    
    9    4   14 1     
   10    5    6 ar    
   11    5   15 1     
   12    6    7 1     
   13    6    9 ar    
   14    7    8 2     
   15    7   16 1     
   16    9   10 ar    
   17    9   17 1     
@<TRIPOS>SUBSTRUCTURE
      1 ****           1
@<TRIPOS>COMMENT
> <Gold.Version>
2022.2.0

> <Gold.Id.Protein>
1qkm|1qkm_protein|mol2

> <Gold.Protein.RotatedTorsions>
[  496  491  490  487 ] final  -10.99 input  -89.99 | X-H torsion

> <Gold.Protein.ActiveResidues>
 MET295  LEU298  THR299  LEU301  ALA302  GLU305  TRP335  MET336  LEU339  MET340 
 GLY342  LEU343  ARG346  PHE356  ILE373  ILE376  PHE377  LEU380  LYS471  GLY472 
 MET473  HIS475  LEU476  LEU477  ASN478  MET479  VAL484  VAL487 

> <Gold.Protein.RotatedAtoms>
   36.2634   34.3622   42.1334 H   0  0  0  0  0  0  0  0  0  0  0  0  # atno 496  bound_to 491 

> <Gold.Score>
     Score     S(PLP)   S(hbond)     S(cho)   S(metal)  DE(clash)   DE(tors)     intcor
     29.55     -30.06       0.00       0.00       0.00       0.00       0.25       0.00

> <Gold.PLP.Fitness>
29.5489

> <Gold.PLP.PLP>
-30.0559

> <Gold.PLP.part.hbond>
0.0000

> <Gold.PLP.part.metal>
0.0000

> <Gold.PLP.part.buried>
-4.0144

> <Gold.PLP.part.nonpolar>
-26.4610

> <Gold.PLP.part.repulsive>
0.2388

> <Gold.PLP.ligand.clash>
0.0000

> <Gold.PLP.ligand.torsion>
0.2536

> <Gold.PLP.Chemscore.Hbond>
0.0000

> <Gold.PLP.Chemscore.CHOScore>
0.0000

> <Gold.PLP.Chemscore.Metal>
0.0000

> <Gold.PLP.Chemscore.Internal.Correction>
0.0001

