#       Name:                EN300-88128_i001
#       Creating user name   aseyller
#       Creation time:       Fri Apr 21 17:10:52 2023


#       File generated by GOLD software.
#

@<TRIPOS>MOLECULE
EN300-88128_i001|benzaldehydes|mol2|192|dock7
    17    17     1
SMALL
USER_CHARGES


@<TRIPOS>ATOM
      1 C1          30.9874  38.5086  36.5721 C.3            1 <1>                0.0000
      2 O2          29.5710  38.3471  36.6710 O.3            1 <1>                0.0000
      3 C3          29.0997  37.7124  37.7708 C.ar           1 <1>                0.0000
      4 C4          27.7323  37.4819  37.8959 C.ar           1 <1>                0.0000
      5 C5          27.2577  36.8400  39.0076 C.ar           1 <1>                0.0000
      6 C6          28.1771  36.4341  39.9901 C.ar           1 <1>                0.0000
      7 C7          27.7175  35.7414  41.2011 C.2            1 <1>                0.0000
      8 O8          28.5005  35.4989  42.0951 O.2            1 <1>                0.0000
      9 C9          29.5364  36.6997  39.7965 C.ar           1 <1>                0.0000
     10 N10         29.9475  37.3158  38.7083 N.ar           1 <1>                0.0000
     11 H11         31.2298  39.0309  35.6466 H              1 <1>                0.0000
     12 H12         31.3471  39.0889  37.4218 H              1 <1>                0.0000
     13 H13         31.4656  37.5291  36.5725 H              1 <1>                0.0000
     14 H14         27.0522  37.8071  37.1225 H              1 <1>                0.0000
     15 H15         26.2012  36.6503  39.1272 H              1 <1>                0.0000
     16 H16         26.6824  35.4478  41.2954 H              1 <1>                0.0000
     17 H17         30.2542  36.3939  40.5432 H              1 <1>                0.0000
@<TRIPOS>BOND
    1    1    2 1     
    2    1   11 1     
    3    1   12 1     
    4    1   13 1     
    5    2    3 1     
    6    3    4 ar    
    7    3   10 ar    
    8    4    5 ar    
    9    4   14 1     
   10    5    6 ar    
   11    5   15 1     
   12    6    7 1     
   13    6    9 ar    
   14    7    8 2     
   15    7   16 1     
   16    9   10 ar    
   17    9   17 1     
@<TRIPOS>SUBSTRUCTURE
      1 ****           1
@<TRIPOS>COMMENT
> <Gold.Version>
2022.2.0

> <Gold.Id.Protein>
1qkm|1qkm_protein|mol2

> <Gold.Protein.RotatedTorsions>
[  496  491  490  487 ] final   16.98 input  -89.99 | X-H torsion

> <Gold.Protein.ActiveResidues>
 MET295  LEU298  THR299  LEU301  ALA302  GLU305  TRP335  MET336  LEU339  MET340 
 GLY342  LEU343  ARG346  PHE356  ILE373  ILE376  PHE377  LEU380  LYS471  GLY472 
 MET473  HIS475  LEU476  LEU477  ASN478  MET479  VAL484  VAL487 

> <Gold.Protein.RotatedAtoms>
   36.2920   33.9590   42.3442 H   0  0  0  0  0  0  0  0  0  0  0  0  # atno 496  bound_to 491 

> <Gold.Score>
     Score     S(PLP)   S(hbond)     S(cho)   S(metal)  DE(clash)   DE(tors)     intcor
     31.80     -28.84       0.00       1.00       0.00       0.00       0.02       0.00

> <Gold.PLP.Fitness>
31.8024

> <Gold.PLP.PLP>
-28.8367

> <Gold.PLP.part.hbond>
-0.4649

> <Gold.PLP.part.metal>
0.0000

> <Gold.PLP.part.buried>
-3.4570

> <Gold.PLP.part.nonpolar>
-25.3897

> <Gold.PLP.part.repulsive>
0.4782

> <Gold.PLP.ligand.clash>
0.0000

> <Gold.PLP.ligand.torsion>
0.0151

> <Gold.PLP.Chemscore.Hbond>
0.0000

> <Gold.PLP.Chemscore.CHOScore>
0.9986

> <Gold.PLP.Chemscore.Metal>
0.0000

> <Gold.Chemscore.Hbonds>
donor molecule, donor type, donor heavy atom, donor atom, acceptor molecule, acceptor atom, score
      L1  C     9    17       P1   470  1.00

> <Gold.PLP.Chemscore.Internal.Correction>
0.0001

