#       Name:                EN300-88128_i001
#       Creating user name   aseyller
#       Creation time:       Fri Apr 21 17:10:56 2023


#       File generated by GOLD software.
#

@<TRIPOS>MOLECULE
EN300-88128_i001|benzaldehydes|mol2|192|dock18
    17    17     1
SMALL
USER_CHARGES


@<TRIPOS>ATOM
      1 C1          31.3559  36.3880  38.2122 C.3            1 <1>                0.0000
      2 O2          30.2300  36.9996  37.5793 O.3            1 <1>                0.0000
      3 C3          29.0647  37.0060  38.2699 C.ar           1 <1>                0.0000
      4 C4          27.9360  37.5923  37.7038 C.ar           1 <1>                0.0000
      5 C5          26.7591  37.5976  38.4026 C.ar           1 <1>                0.0000
      6 C6          26.7344  37.0054  39.6770 C.ar           1 <1>                0.0000
      7 C7          25.4959  36.9851  40.4663 C.2            1 <1>                0.0000
      8 O8          25.5178  37.2999  41.6374 O.2            1 <1>                0.0000
      9 C9          27.9075  36.4353  40.1816 C.ar           1 <1>                0.0000
     10 N10         29.0155  36.4494  39.4710 N.ar           1 <1>                0.0000
     11 H11         32.2218  36.4511  37.5532 H              1 <1>                0.0000
     12 H12         31.5723  36.9049  39.1472 H              1 <1>                0.0000
     13 H13         31.1322  35.3415  38.4190 H              1 <1>                0.0000
     14 H14         27.9886  38.0394  36.7221 H              1 <1>                0.0000
     15 H15         25.8703  38.0467  37.9846 H              1 <1>                0.0000
     16 H16         24.5656  36.6898  40.0039 H              1 <1>                0.0000
     17 H17         27.9035  35.9771  41.1596 H              1 <1>                0.0000
@<TRIPOS>BOND
    1    1    2 1     
    2    1   11 1     
    3    1   12 1     
    4    1   13 1     
    5    2    3 1     
    6    3    4 ar    
    7    3   10 ar    
    8    4    5 ar    
    9    4   14 1     
   10    5    6 ar    
   11    5   15 1     
   12    6    7 1     
   13    6    9 ar    
   14    7    8 2     
   15    7   16 1     
   16    9   10 ar    
   17    9   17 1     
@<TRIPOS>SUBSTRUCTURE
      1 ****           1
@<TRIPOS>COMMENT
> <Gold.Version>
2022.2.0

> <Gold.Id.Protein>
1qkm|1qkm_protein|mol2

> <Gold.Protein.RotatedTorsions>
[  496  491  490  487 ] final   20.17 input  -89.99 | X-H torsion

> <Gold.Protein.ActiveResidues>
 MET295  LEU298  THR299  LEU301  ALA302  GLU305  TRP335  MET336  LEU339  MET340 
 GLY342  LEU343  ARG346  PHE356  ILE373  ILE376  PHE377  LEU380  LYS471  GLY472 
 MET473  HIS475  LEU476  LEU477  ASN478  MET479  VAL484  VAL487 

> <Gold.Protein.RotatedAtoms>
   36.3030   33.9094   42.3570 H   0  0  0  0  0  0  0  0  0  0  0  0  # atno 496  bound_to 491 

> <Gold.Score>
     Score     S(PLP)   S(hbond)     S(cho)   S(metal)  DE(clash)   DE(tors)     intcor
     30.90     -31.65       0.02       0.00       0.00       0.00       0.40       0.00

> <Gold.PLP.Fitness>
30.8998

> <Gold.PLP.PLP>
-31.6452

> <Gold.PLP.part.hbond>
-1.0000

> <Gold.PLP.part.metal>
0.0000

> <Gold.PLP.part.buried>
-3.8972

> <Gold.PLP.part.nonpolar>
-27.3150

> <Gold.PLP.part.repulsive>
0.2653

> <Gold.PLP.ligand.clash>
0.0000

> <Gold.PLP.ligand.torsion>
0.3961

> <Gold.PLP.Chemscore.Hbond>
0.0156

> <Gold.PLP.Chemscore.CHOScore>
0.0000

> <Gold.PLP.Chemscore.Metal>
0.0000

> <Gold.Chemscore.Hbonds>
donor molecule, donor type, donor heavy atom, donor atom, acceptor molecule, acceptor atom, score
      P1  H  1258  1270       L1     8  0.02

> <Gold.PLP.Chemscore.Internal.Correction>
0.0001

