#       Name:                EN300-88128_i001
#       Creating user name   aseyller
#       Creation time:       Fri Apr 21 17:10:51 2023


#       File generated by GOLD software.
#

@<TRIPOS>MOLECULE
EN300-88128_i001|benzaldehydes|mol2|192|dock3
    17    17     1
SMALL
USER_CHARGES


@<TRIPOS>ATOM
      1 C1          25.7996  36.7512  40.2314 C.3            1 <1>                0.0000
      2 O2          26.4846  37.3012  39.1043 O.3            1 <1>                0.0000
      3 C3          27.7822  36.9484  38.9411 C.ar           1 <1>                0.0000
      4 C4          28.5177  37.5049  37.8981 C.ar           1 <1>                0.0000
      5 C5          29.8288  37.1478  37.7347 C.ar           1 <1>                0.0000
      6 C6          30.3883  36.2241  38.6343 C.ar           1 <1>                0.0000
      7 C7          31.7910  35.8092  38.5013 C.2            1 <1>                0.0000
      8 O8          32.4835  36.2839  37.6260 O.2            1 <1>                0.0000
      9 C9          29.5886  35.7065  39.6582 C.ar           1 <1>                0.0000
     10 N10         28.3332  36.0833  39.7795 N.ar           1 <1>                0.0000
     11 H11         24.7716  37.1133  40.2440 H              1 <1>                0.0000
     12 H12         25.8009  35.6634  40.1620 H              1 <1>                0.0000
     13 H13         26.3040  37.0573  41.1479 H              1 <1>                0.0000
     14 H14         28.0575  38.2120  37.2238 H              1 <1>                0.0000
     15 H15         30.4195  37.5657  36.9330 H              1 <1>                0.0000
     16 H16         32.2058  35.0813  39.1830 H              1 <1>                0.0000
     17 H17         30.0050  34.9957  40.3565 H              1 <1>                0.0000
@<TRIPOS>BOND
    1    1    2 1     
    2    1   11 1     
    3    1   12 1     
    4    1   13 1     
    5    2    3 1     
    6    3    4 ar    
    7    3   10 ar    
    8    4    5 ar    
    9    4   14 1     
   10    5    6 ar    
   11    5   15 1     
   12    6    7 1     
   13    6    9 ar    
   14    7    8 2     
   15    7   16 1     
   16    9   10 ar    
   17    9   17 1     
@<TRIPOS>SUBSTRUCTURE
      1 ****           1
@<TRIPOS>COMMENT
> <Gold.Version>
2022.2.0

> <Gold.Id.Protein>
1qkm|1qkm_protein|mol2

> <Gold.Protein.RotatedTorsions>
[  496  491  490  487 ] final  157.86 input  -89.99 | X-H torsion

> <Gold.Protein.ActiveResidues>
 MET295  LEU298  THR299  LEU301  ALA302  GLU305  TRP335  MET336  LEU339  MET340 
 GLY342  LEU343  ARG346  PHE356  ILE373  ILE376  PHE377  LEU380  LYS471  GLY472 
 MET473  HIS475  LEU476  LEU477  ASN478  MET479  VAL484  VAL487 

> <Gold.Protein.RotatedAtoms>
   37.2907   33.1820   41.0959 H   0  0  0  0  0  0  0  0  0  0  0  0  # atno 496  bound_to 491 

> <Gold.Score>
     Score     S(PLP)   S(hbond)     S(cho)   S(metal)  DE(clash)   DE(tors)     intcor
     32.49     -29.51       0.00       1.00       0.00       0.00       0.01       0.00

> <Gold.PLP.Fitness>
32.4941

> <Gold.PLP.PLP>
-29.5142

> <Gold.PLP.part.hbond>
0.0000

> <Gold.PLP.part.metal>
0.0000

> <Gold.PLP.part.buried>
-3.8853

> <Gold.PLP.part.nonpolar>
-25.8552

> <Gold.PLP.part.repulsive>
0.0968

> <Gold.PLP.ligand.clash>
0.0000

> <Gold.PLP.ligand.torsion>
0.0101

> <Gold.PLP.Chemscore.Hbond>
0.0000

> <Gold.PLP.Chemscore.CHOScore>
1.0000

> <Gold.PLP.Chemscore.Metal>
0.0000

> <Gold.Chemscore.Hbonds>
donor molecule, donor type, donor heavy atom, donor atom, acceptor molecule, acceptor atom, score
      L1  C     9    17       P1   470  1.00

> <Gold.PLP.Chemscore.Internal.Correction>
0.0001

