#       Name:                EN300-88128_i001
#       Creating user name   aseyller
#       Creation time:       Fri Apr 21 17:10:52 2023


#       File generated by GOLD software.
#

@<TRIPOS>MOLECULE
EN300-88128_i001|benzaldehydes|mol2|192|dock8
    17    17     1
SMALL
USER_CHARGES


@<TRIPOS>ATOM
      1 C1          26.4115  36.9951  39.2026 C.3            1 <1>                0.0000
      2 O2          27.2541  37.5708  38.2023 O.3            1 <1>                0.0000
      3 C3          28.5484  37.1718  38.1843 C.ar           1 <1>                0.0000
      4 C4          29.4042  37.6657  37.2035 C.ar           1 <1>                0.0000
      5 C5          30.7118  37.2619  37.1869 C.ar           1 <1>                0.0000
      6 C6          31.1453  36.3554  38.1697 C.ar           1 <1>                0.0000
      7 C7          32.5389  35.8922  38.1946 C.2            1 <1>                0.0000
      8 O8          33.2642  36.1002  37.2450 O.2            1 <1>                0.0000
      9 C9          30.2288  35.9017  39.1237 C.ar           1 <1>                0.0000
     10 N10         28.9815  36.3218  39.1034 N.ar           1 <1>                0.0000
     11 H11         25.4039  37.3995  39.1058 H              1 <1>                0.0000
     12 H12         26.3826  35.9130  39.0745 H              1 <1>                0.0000
     13 H13         26.8053  37.2336  40.1906 H              1 <1>                0.0000
     14 H14         29.0393  38.3612  36.4621 H              1 <1>                0.0000
     15 H15         31.3946  37.6309  36.4358 H              1 <1>                0.0000
     16 H16         32.9178  35.3662  39.0586 H              1 <1>                0.0000
     17 H17         30.5477  35.2047  39.8845 H              1 <1>                0.0000
@<TRIPOS>BOND
    1    1    2 1     
    2    1   11 1     
    3    1   12 1     
    4    1   13 1     
    5    2    3 1     
    6    3    4 ar    
    7    3   10 ar    
    8    4    5 ar    
    9    4   14 1     
   10    5    6 ar    
   11    5   15 1     
   12    6    7 1     
   13    6    9 ar    
   14    7    8 2     
   15    7   16 1     
   16    9   10 ar    
   17    9   17 1     
@<TRIPOS>SUBSTRUCTURE
      1 ****           1
@<TRIPOS>COMMENT
> <Gold.Version>
2022.2.0

> <Gold.Id.Protein>
1qkm|1qkm_protein|mol2

> <Gold.Protein.RotatedTorsions>
[  496  491  490  487 ] final  141.56 input  -89.99 | X-H torsion

> <Gold.Protein.ActiveResidues>
 MET295  LEU298  THR299  LEU301  ALA302  GLU305  TRP335  MET336  LEU339  MET340 
 GLY342  LEU343  ARG346  PHE356  ILE373  ILE376  PHE377  LEU380  LYS471  GLY472 
 MET473  HIS475  LEU476  LEU477  ASN478  MET479  VAL484  VAL487 

> <Gold.Protein.RotatedAtoms>
   37.2228   33.0360   41.3095 H   0  0  0  0  0  0  0  0  0  0  0  0  # atno 496  bound_to 491 

> <Gold.Score>
     Score     S(PLP)   S(hbond)     S(cho)   S(metal)  DE(clash)   DE(tors)     intcor
     31.16     -28.27       0.00       0.99       0.00       0.00       0.04       0.00

> <Gold.PLP.Fitness>
31.1635

> <Gold.PLP.PLP>
-28.2737

> <Gold.PLP.part.hbond>
0.0000

> <Gold.PLP.part.metal>
0.0000

> <Gold.PLP.part.buried>
-3.4623

> <Gold.PLP.part.nonpolar>
-24.8990

> <Gold.PLP.part.repulsive>
0.0359

> <Gold.PLP.ligand.clash>
0.0000

> <Gold.PLP.ligand.torsion>
0.0419

> <Gold.PLP.Chemscore.Hbond>
0.0000

> <Gold.PLP.Chemscore.CHOScore>
0.9911

> <Gold.PLP.Chemscore.Metal>
0.0000

> <Gold.Chemscore.Hbonds>
donor molecule, donor type, donor heavy atom, donor atom, acceptor molecule, acceptor atom, score
      L1  C     9    17       P1   470  0.99

> <Gold.PLP.Chemscore.Internal.Correction>
0.0001

