#       Name:                EN300-88128_i001
#       Creating user name   aseyller
#       Creation time:       Fri Apr 21 17:10:56 2023


#       File generated by GOLD software.
#

@<TRIPOS>MOLECULE
EN300-88128_i001|benzaldehydes|mol2|192|dock17
    17    17     1
SMALL
USER_CHARGES


@<TRIPOS>ATOM
      1 C1          25.5034  36.9997  41.1976 C.3            1 <1>                0.0000
      2 O2          25.7141  36.9352  39.7857 O.3            1 <1>                0.0000
      3 C3          26.9961  36.9907  39.3521 C.ar           1 <1>                0.0000
      4 C4          28.0140  36.4850  40.1561 C.ar           1 <1>                0.0000
      5 C5          29.3089  36.5414  39.7164 C.ar           1 <1>                0.0000
      6 C6          29.5645  37.1132  38.4582 C.ar           1 <1>                0.0000
      7 C7          30.9369  37.1968  37.9416 C.2            1 <1>                0.0000
      8 O8          31.1476  37.6996  36.8582 O.2            1 <1>                0.0000
      9 C9          28.4914  37.6009  37.7055 C.ar           1 <1>                0.0000
     10 N10         27.2614  37.5206  38.1672 N.ar           1 <1>                0.0000
     11 H11         24.4354  36.9453  41.4085 H              1 <1>                0.0000
     12 H12         26.0120  36.1646  41.6794 H              1 <1>                0.0000
     13 H13         25.9023  37.9384  41.5820 H              1 <1>                0.0000
     14 H14         27.7838  36.0522  41.1185 H              1 <1>                0.0000
     15 H15         30.1155  36.1560  40.3224 H              1 <1>                0.0000
     16 H16         31.7585  36.8102  38.5265 H              1 <1>                0.0000
     17 H17         28.6729  38.0432  36.7371 H              1 <1>                0.0000
@<TRIPOS>BOND
    1    1    2 1     
    2    1   11 1     
    3    1   12 1     
    4    1   13 1     
    5    2    3 1     
    6    3    4 ar    
    7    3   10 ar    
    8    4    5 ar    
    9    4   14 1     
   10    5    6 ar    
   11    5   15 1     
   12    6    7 1     
   13    6    9 ar    
   14    7    8 2     
   15    7   16 1     
   16    9   10 ar    
   17    9   17 1     
@<TRIPOS>SUBSTRUCTURE
      1 ****           1
@<TRIPOS>COMMENT
> <Gold.Version>
2022.2.0

> <Gold.Id.Protein>
1qkm|1qkm_protein|mol2

> <Gold.Protein.RotatedTorsions>
[  496  491  490  487 ] final  -80.49 input  -89.99 | X-H torsion

> <Gold.Protein.ActiveResidues>
 MET295  LEU298  THR299  LEU301  ALA302  GLU305  TRP335  MET336  LEU339  MET340 
 GLY342  LEU343  ARG346  PHE356  ILE373  ILE376  PHE377  LEU380  LYS471  GLY472 
 MET473  HIS475  LEU476  LEU477  ASN478  MET479  VAL484  VAL487 

> <Gold.Protein.RotatedAtoms>
   36.6704   34.7042   41.1987 H   0  0  0  0  0  0  0  0  0  0  0  0  # atno 496  bound_to 491 

> <Gold.Score>
     Score     S(PLP)   S(hbond)     S(cho)   S(metal)  DE(clash)   DE(tors)     intcor
     30.24     -30.99       0.00       0.00       0.00       0.00       0.37       0.00

> <Gold.PLP.Fitness>
30.2388

> <Gold.PLP.PLP>
-30.9886

> <Gold.PLP.part.hbond>
0.0000

> <Gold.PLP.part.metal>
0.0000

> <Gold.PLP.part.buried>
-3.9181

> <Gold.PLP.part.nonpolar>
-27.2670

> <Gold.PLP.part.repulsive>
0.1034

> <Gold.PLP.ligand.clash>
0.0000

> <Gold.PLP.ligand.torsion>
0.3750

> <Gold.PLP.Chemscore.Hbond>
0.0000

> <Gold.PLP.Chemscore.CHOScore>
0.0000

> <Gold.PLP.Chemscore.Metal>
0.0000

> <Gold.PLP.Chemscore.Internal.Correction>
0.0001

