#       Name:                EN300-88128_i001
#       Creating user name   aseyller
#       Creation time:       Fri Apr 21 17:10:52 2023


#       File generated by GOLD software.
#

@<TRIPOS>MOLECULE
EN300-88128_i001|benzaldehydes|mol2|192|dock6
    17    17     1
SMALL
USER_CHARGES


@<TRIPOS>ATOM
      1 C1          33.3916  36.6554  35.2078 C.3            1 <1>                0.0000
      2 O2          33.2625  35.5068  36.0482 O.3            1 <1>                0.0000
      3 C3          32.3197  35.5584  37.0195 C.ar           1 <1>                0.0000
      4 C4          32.0989  34.4410  37.8202 C.ar           1 <1>                0.0000
      5 C5          31.1463  34.4948  38.8014 C.ar           1 <1>                0.0000
      6 C6          30.4202  35.6871  38.9652 C.ar           1 <1>                0.0000
      7 C7          29.3877  35.7949  40.0043 C.2            1 <1>                0.0000
      8 O8          28.7285  36.8084  40.1013 O.2            1 <1>                0.0000
      9 C9          30.6966  36.7692  38.1236 C.ar           1 <1>                0.0000
     10 N10         31.6259  36.6730  37.1963 N.ar           1 <1>                0.0000
     11 H11         34.1799  36.4826  34.4751 H              1 <1>                0.0000
     12 H12         32.4487  36.8356  34.6915 H              1 <1>                0.0000
     13 H13         33.6446  37.5239  35.8158 H              1 <1>                0.0000
     14 H14         32.6741  33.5397  37.6680 H              1 <1>                0.0000
     15 H15         30.9567  33.6408  39.4349 H              1 <1>                0.0000
     16 H16         29.2156  34.9719  40.6822 H              1 <1>                0.0000
     17 H17         30.1464  37.6915  38.2377 H              1 <1>                0.0000
@<TRIPOS>BOND
    1    1    2 1     
    2    1   11 1     
    3    1   12 1     
    4    1   13 1     
    5    2    3 1     
    6    3    4 ar    
    7    3   10 ar    
    8    4    5 ar    
    9    4   14 1     
   10    5    6 ar    
   11    5   15 1     
   12    6    7 1     
   13    6    9 ar    
   14    7    8 2     
   15    7   16 1     
   16    9   10 ar    
   17    9   17 1     
@<TRIPOS>SUBSTRUCTURE
      1 ****           1
@<TRIPOS>COMMENT
> <Gold.Version>
2022.2.0

> <Gold.Id.Protein>
1qkm|1qkm_protein|mol2

> <Gold.Protein.RotatedTorsions>
[  496  491  490  487 ] final  120.08 input  -89.99 | X-H torsion

> <Gold.Protein.ActiveResidues>
 MET295  LEU298  THR299  LEU301  ALA302  GLU305  TRP335  MET336  LEU339  MET340 
 GLY342  LEU343  ARG346  PHE356  ILE373  ILE376  PHE377  LEU380  LYS471  GLY472 
 MET473  HIS475  LEU476  LEU477  ASN478  MET479  VAL484  VAL487 

> <Gold.Protein.RotatedAtoms>
   37.0812   32.9434   41.6176 H   0  0  0  0  0  0  0  0  0  0  0  0  # atno 496  bound_to 491 

> <Gold.Score>
     Score     S(PLP)   S(hbond)     S(cho)   S(metal)  DE(clash)   DE(tors)     intcor
     31.99     -32.02       0.00       0.00       0.00       0.00       0.02       0.00

> <Gold.PLP.Fitness>
31.9893

> <Gold.PLP.PLP>
-32.0202

> <Gold.PLP.part.hbond>
0.0000

> <Gold.PLP.part.metal>
0.0000

> <Gold.PLP.part.buried>
-3.3473

> <Gold.PLP.part.nonpolar>
-29.0295

> <Gold.PLP.part.repulsive>
0.0851

> <Gold.PLP.ligand.clash>
0.0000

> <Gold.PLP.ligand.torsion>
0.0155

> <Gold.PLP.Chemscore.Hbond>
0.0000

> <Gold.PLP.Chemscore.CHOScore>
0.0000

> <Gold.PLP.Chemscore.Metal>
0.0000

> <Gold.PLP.Chemscore.Internal.Correction>
0.0001

