#       Name:                EN300-88128_i001
#       Creating user name   aseyller
#       Creation time:       Fri Apr 21 17:10:53 2023


#       File generated by GOLD software.
#

@<TRIPOS>MOLECULE
EN300-88128_i001|benzaldehydes|mol2|192|dock9
    17    17     1
SMALL
USER_CHARGES


@<TRIPOS>ATOM
      1 C1          28.9215  36.6843  40.4461 C.3            1 <1>                0.0000
      2 O2          29.6693  35.5428  40.0220 O.3            1 <1>                0.0000
      3 C3          30.5243  35.7178  38.9861 C.ar           1 <1>                0.0000
      4 C4          31.3734  34.6786  38.6153 C.ar           1 <1>                0.0000
      5 C5          32.2364  34.8568  37.5680 C.ar           1 <1>                0.0000
      6 C6          32.2328  36.0937  36.9004 C.ar           1 <1>                0.0000
      7 C7          33.1398  36.3341  35.7704 C.2            1 <1>                0.0000
      8 O8          33.0384  37.3508  35.1170 O.2            1 <1>                0.0000
      9 C9          31.3518  37.0918  37.3287 C.ar           1 <1>                0.0000
     10 N10         30.5357  36.8732  38.3381 N.ar           1 <1>                0.0000
     11 H11         28.2774  36.4072  41.2806 H              1 <1>                0.0000
     12 H12         29.6070  37.4709  40.7617 H              1 <1>                0.0000
     13 H13         28.3100  37.0456  39.6194 H              1 <1>                0.0000
     14 H14         31.3514  33.7403  39.1495 H              1 <1>                0.0000
     15 H15         32.9049  34.0657  37.2621 H              1 <1>                0.0000
     16 H16         33.8970  35.6053  35.5211 H              1 <1>                0.0000
     17 H17         31.3384  38.0472  36.8254 H              1 <1>                0.0000
@<TRIPOS>BOND
    1    1    2 1     
    2    1   11 1     
    3    1   12 1     
    4    1   13 1     
    5    2    3 1     
    6    3    4 ar    
    7    3   10 ar    
    8    4    5 ar    
    9    4   14 1     
   10    5    6 ar    
   11    5   15 1     
   12    6    7 1     
   13    6    9 ar    
   14    7    8 2     
   15    7   16 1     
   16    9   10 ar    
   17    9   17 1     
@<TRIPOS>SUBSTRUCTURE
      1 ****           1
@<TRIPOS>COMMENT
> <Gold.Version>
2022.2.0

> <Gold.Id.Protein>
1qkm|1qkm_protein|mol2

> <Gold.Protein.RotatedTorsions>
[  496  491  490  487 ] final  128.70 input  -89.99 | X-H torsion

> <Gold.Protein.ActiveResidues>
 MET295  LEU298  THR299  LEU301  ALA302  GLU305  TRP335  MET336  LEU339  MET340 
 GLY342  LEU343  ARG346  PHE356  ILE373  ILE376  PHE377  LEU380  LYS471  GLY472 
 MET473  HIS475  LEU476  LEU477  ASN478  MET479  VAL484  VAL487 

> <Gold.Protein.RotatedAtoms>
   37.1441   32.9660   41.4927 H   0  0  0  0  0  0  0  0  0  0  0  0  # atno 496  bound_to 491 

> <Gold.Score>
     Score     S(PLP)   S(hbond)     S(cho)   S(metal)  DE(clash)   DE(tors)     intcor
     30.14     -30.25       0.00       0.00       0.00       0.00       0.05       0.00

> <Gold.PLP.Fitness>
30.1408

> <Gold.PLP.PLP>
-30.2451

> <Gold.PLP.part.hbond>
0.0000

> <Gold.PLP.part.metal>
0.0000

> <Gold.PLP.part.buried>
-4.0857

> <Gold.PLP.part.nonpolar>
-27.5626

> <Gold.PLP.part.repulsive>
1.0348

> <Gold.PLP.ligand.clash>
0.0000

> <Gold.PLP.ligand.torsion>
0.0522

> <Gold.PLP.Chemscore.Hbond>
0.0000

> <Gold.PLP.Chemscore.CHOScore>
0.0000

> <Gold.PLP.Chemscore.Metal>
0.0000

> <Gold.PLP.Chemscore.Internal.Correction>
0.0001

