#       Name:                EN300-88128_i001
#       Creating user name   aseyller
#       Creation time:       Fri Apr 21 17:10:53 2023


#       File generated by GOLD software.
#

@<TRIPOS>MOLECULE
EN300-88128_i001|benzaldehydes|mol2|192|dock10
    17    17     1
SMALL
USER_CHARGES


@<TRIPOS>ATOM
      1 C1          32.0457  36.5447  37.5896 C.3            1 <1>                0.0000
      2 O2          30.7263  36.9779  37.2523 O.3            1 <1>                0.0000
      3 C3          29.7719  36.8401  38.2035 C.ar           1 <1>                0.0000
      4 C4          28.4491  37.1472  37.8965 C.ar           1 <1>                0.0000
      5 C5          27.4857  37.0071  38.8585 C.ar           1 <1>                0.0000
      6 C6          27.8718  36.5544  40.1319 C.ar           1 <1>                0.0000
      7 C7          26.8754  36.3873  41.1980 C.2            1 <1>                0.0000
      8 O8          25.7095  36.6446  40.9842 O.2            1 <1>                0.0000
      9 C9          29.2196  36.2651  40.3677 C.ar           1 <1>                0.0000
     10 N10         30.1107  36.4102  39.4098 N.ar           1 <1>                0.0000
     11 H11         32.7104  36.7105  36.7418 H              1 <1>                0.0000
     12 H12         32.4051  37.1104  38.4493 H              1 <1>                0.0000
     13 H13         32.0279  35.4829  37.8351 H              1 <1>                0.0000
     14 H14         28.1856  37.4932  36.9079 H              1 <1>                0.0000
     15 H15         26.4529  37.2394  38.6443 H              1 <1>                0.0000
     16 H16         27.1808  36.0354  42.1724 H              1 <1>                0.0000
     17 H17         29.5308  35.9168  41.3415 H              1 <1>                0.0000
@<TRIPOS>BOND
    1    1    2 1     
    2    1   11 1     
    3    1   12 1     
    4    1   13 1     
    5    2    3 1     
    6    3    4 ar    
    7    3   10 ar    
    8    4    5 ar    
    9    4   14 1     
   10    5    6 ar    
   11    5   15 1     
   12    6    7 1     
   13    6    9 ar    
   14    7    8 2     
   15    7   16 1     
   16    9   10 ar    
   17    9   17 1     
@<TRIPOS>SUBSTRUCTURE
      1 ****           1
@<TRIPOS>COMMENT
> <Gold.Version>
2022.2.0

> <Gold.Id.Protein>
1qkm|1qkm_protein|mol2

> <Gold.Protein.RotatedTorsions>
[  496  491  490  487 ] final  173.38 input  -89.99 | X-H torsion

> <Gold.Protein.ActiveResidues>
 MET295  LEU298  THR299  LEU301  ALA302  GLU305  TRP335  MET336  LEU339  MET340 
 GLY342  LEU343  ARG346  PHE356  ILE373  ILE376  PHE377  LEU380  LYS471  GLY472 
 MET473  HIS475  LEU476  LEU477  ASN478  MET479  VAL484  VAL487 

> <Gold.Protein.RotatedAtoms>
   37.3180   33.3702   40.9264 H   0  0  0  0  0  0  0  0  0  0  0  0  # atno 496  bound_to 491 

> <Gold.Score>
     Score     S(PLP)   S(hbond)     S(cho)   S(metal)  DE(clash)   DE(tors)     intcor
     30.43     -27.53       0.00       0.98       0.00       0.00       0.02       0.00

> <Gold.PLP.Fitness>
30.4273

> <Gold.PLP.PLP>
-27.5284

> <Gold.PLP.part.hbond>
0.0000

> <Gold.PLP.part.metal>
0.0000

> <Gold.PLP.part.buried>
-3.4404

> <Gold.PLP.part.nonpolar>
-24.8472

> <Gold.PLP.part.repulsive>
0.2659

> <Gold.PLP.ligand.clash>
0.0000

> <Gold.PLP.ligand.torsion>
0.0239

> <Gold.PLP.Chemscore.Hbond>
0.0000

> <Gold.PLP.Chemscore.CHOScore>
0.9822

> <Gold.PLP.Chemscore.Metal>
0.0000

> <Gold.Chemscore.Hbonds>
donor molecule, donor type, donor heavy atom, donor atom, acceptor molecule, acceptor atom, score
      L1  C     9    17       P1   470  0.98

> <Gold.PLP.Chemscore.Internal.Correction>
0.0001

