#       Name:                EN300-88128_i001
#       Creating user name   aseyller
#       Creation time:       Fri Apr 21 17:10:56 2023


#       File generated by GOLD software.
#

@<TRIPOS>MOLECULE
EN300-88128_i001|benzaldehydes|mol2|192|dock16
    17    17     1
SMALL
USER_CHARGES


@<TRIPOS>ATOM
      1 C1          33.1911  36.7021  34.7646 C.3            1 <1>                0.0000
      2 O2          33.3924  36.2479  36.1045 O.3            1 <1>                0.0000
      3 C3          32.3336  36.3256  36.9458 C.ar           1 <1>                0.0000
      4 C4          31.3503  37.2857  36.7229 C.ar           1 <1>                0.0000
      5 C5          30.2809  37.3628  37.5735 C.ar           1 <1>                0.0000
      6 C6          30.2152  36.4614  38.6500 C.ar           1 <1>                0.0000
      7 C7          29.0877  36.5035  39.5905 C.2            1 <1>                0.0000
      8 O8          29.0937  35.7971  40.5764 O.2            1 <1>                0.0000
      9 C9          31.2401  35.5236  38.8114 C.ar           1 <1>                0.0000
     10 N10         32.2472  35.4835  37.9647 N.ar           1 <1>                0.0000
     11 H11         34.1152  36.5850  34.1986 H              1 <1>                0.0000
     12 H12         32.4014  36.1144  34.2966 H              1 <1>                0.0000
     13 H13         32.9031  37.7532  34.7768 H              1 <1>                0.0000
     14 H14         31.4309  37.9638  35.8862 H              1 <1>                0.0000
     15 H15         29.5057  38.0992  37.4214 H              1 <1>                0.0000
     16 H16         28.2532  37.1633  39.4040 H              1 <1>                0.0000
     17 H17         31.2030  34.8251  39.6342 H              1 <1>                0.0000
@<TRIPOS>BOND
    1    1    2 1     
    2    1   11 1     
    3    1   12 1     
    4    1   13 1     
    5    2    3 1     
    6    3    4 ar    
    7    3   10 ar    
    8    4    5 ar    
    9    4   14 1     
   10    5    6 ar    
   11    5   15 1     
   12    6    7 1     
   13    6    9 ar    
   14    7    8 2     
   15    7   16 1     
   16    9   10 ar    
   17    9   17 1     
@<TRIPOS>SUBSTRUCTURE
      1 ****           1
@<TRIPOS>COMMENT
> <Gold.Version>
2022.2.0

> <Gold.Id.Protein>
1qkm|1qkm_protein|mol2

> <Gold.Protein.RotatedTorsions>
[  496  491  490  487 ] final  155.21 input  -89.99 | X-H torsion

> <Gold.Protein.ActiveResidues>
 MET295  LEU298  THR299  LEU301  ALA302  GLU305  TRP335  MET336  LEU339  MET340 
 GLY342  LEU343  ARG346  PHE356  ILE373  ILE376  PHE377  LEU380  LYS471  GLY472 
 MET473  HIS475  LEU476  LEU477  ASN478  MET479  VAL484  VAL487 

> <Gold.Protein.RotatedAtoms>
   37.2823   33.1543   41.1286 H   0  0  0  0  0  0  0  0  0  0  0  0  # atno 496  bound_to 491 

> <Gold.Score>
     Score     S(PLP)   S(hbond)     S(cho)   S(metal)  DE(clash)   DE(tors)     intcor
     30.96     -28.71       0.00       1.00       0.00       0.00       0.37       0.00

> <Gold.PLP.Fitness>
30.9621

> <Gold.PLP.PLP>
-28.7092

> <Gold.PLP.part.hbond>
0.0000

> <Gold.PLP.part.metal>
0.0000

> <Gold.PLP.part.buried>
-3.6540

> <Gold.PLP.part.nonpolar>
-26.1285

> <Gold.PLP.part.repulsive>
0.2087

> <Gold.PLP.ligand.clash>
0.0000

> <Gold.PLP.ligand.torsion>
0.3736

> <Gold.PLP.Chemscore.Hbond>
0.0000

> <Gold.PLP.Chemscore.CHOScore>
1.0000

> <Gold.PLP.Chemscore.Metal>
0.0000

> <Gold.Chemscore.Hbonds>
donor molecule, donor type, donor heavy atom, donor atom, acceptor molecule, acceptor atom, score
      L1  C     9    17       P1   470  1.00

> <Gold.PLP.Chemscore.Internal.Correction>
0.0001

