#       Name:                EN300-88128_i001
#       Creating user name   aseyller
#       Creation time:       Fri Apr 21 17:10:57 2023


#       File generated by GOLD software.
#

@<TRIPOS>MOLECULE
EN300-88128_i001|benzaldehydes|mol2|192|dock19
    17    17     1
SMALL
USER_CHARGES


@<TRIPOS>ATOM
      1 C1          32.8468  37.2718  34.9049 C.3            1 <1>                0.0000
      2 O2          32.8309  36.2520  35.9058 O.3            1 <1>                0.0000
      3 C3          31.9251  36.3841  36.9042 C.ar           1 <1>                0.0000
      4 C4          31.8524  35.4106  37.8969 C.ar           1 <1>                0.0000
      5 C5          30.9369  35.5458  38.9052 C.ar           1 <1>                0.0000
      6 C6          30.0968  36.6726  38.9004 C.ar           1 <1>                0.0000
      7 C7          29.0984  36.8634  39.9606 C.2            1 <1>                0.0000
      8 O8          29.0483  36.0891  40.8929 O.2            1 <1>                0.0000
      9 C9          30.2269  37.6097  37.8704 C.ar           1 <1>                0.0000
     10 N10         31.1257  37.4403  36.9238 N.ar           1 <1>                0.0000
     11 H11         33.6164  37.0449  34.1672 H              1 <1>                0.0000
     12 H12         31.8744  37.3145  34.4143 H              1 <1>                0.0000
     13 H13         33.0616  38.2339  35.3700 H              1 <1>                0.0000
     14 H14         32.5125  34.5562  37.8712 H              1 <1>                0.0000
     15 H15         30.8614  34.8036  39.6862 H              1 <1>                0.0000
     16 H16         28.4087  37.6930  39.9100 H              1 <1>                0.0000
     17 H17         29.5879  38.4802  37.8537 H              1 <1>                0.0000
@<TRIPOS>BOND
    1    1    2 1     
    2    1   11 1     
    3    1   12 1     
    4    1   13 1     
    5    2    3 1     
    6    3    4 ar    
    7    3   10 ar    
    8    4    5 ar    
    9    4   14 1     
   10    5    6 ar    
   11    5   15 1     
   12    6    7 1     
   13    6    9 ar    
   14    7    8 2     
   15    7   16 1     
   16    9   10 ar    
   17    9   17 1     
@<TRIPOS>SUBSTRUCTURE
      1 ****           1
@<TRIPOS>COMMENT
> <Gold.Version>
2022.2.0

> <Gold.Id.Protein>
1qkm|1qkm_protein|mol2

> <Gold.Protein.RotatedTorsions>
[  496  491  490  487 ] final -115.42 input  -89.99 | X-H torsion

> <Gold.Protein.ActiveResidues>
 MET295  LEU298  THR299  LEU301  ALA302  GLU305  TRP335  MET336  LEU339  MET340 
 GLY342  LEU343  ARG346  PHE356  ILE373  ILE376  PHE377  LEU380  LYS471  GLY472 
 MET473  HIS475  LEU476  LEU477  ASN478  MET479  VAL484  VAL487 

> <Gold.Protein.RotatedAtoms>
   36.9875   34.4129   40.8312 H   0  0  0  0  0  0  0  0  0  0  0  0  # atno 496  bound_to 491 

> <Gold.Score>
     Score     S(PLP)   S(hbond)     S(cho)   S(metal)  DE(clash)   DE(tors)     intcor
     30.12     -30.13       0.00       0.00       0.00       0.00       0.01       0.00

> <Gold.PLP.Fitness>
30.1187

> <Gold.PLP.PLP>
-30.1293

> <Gold.PLP.part.hbond>
0.0000

> <Gold.PLP.part.metal>
0.0000

> <Gold.PLP.part.buried>
-3.6831

> <Gold.PLP.part.nonpolar>
-26.8957

> <Gold.PLP.part.repulsive>
0.1845

> <Gold.PLP.ligand.clash>
0.0000

> <Gold.PLP.ligand.torsion>
0.0053

> <Gold.PLP.Chemscore.Hbond>
0.0000

> <Gold.PLP.Chemscore.CHOScore>
0.0000

> <Gold.PLP.Chemscore.Metal>
0.0000

> <Gold.PLP.Chemscore.Internal.Correction>
0.0001

