#       Name:                EN300-88128_i001
#       Creating user name   aseyller
#       Creation time:       Fri Apr 21 17:10:50 2023


#       File generated by GOLD software.
#

@<TRIPOS>MOLECULE
EN300-88128_i001|benzaldehydes|mol2|192|dock2
    17    17     1
SMALL
USER_CHARGES


@<TRIPOS>ATOM
      1 C1          25.4367  37.0205  41.3544 C.3            1 <1>                0.0000
      2 O2          25.7139  37.1773  39.9613 O.3            1 <1>                0.0000
      3 C3          26.9952  36.9893  39.5643 C.ar           1 <1>                0.0000
      4 C4          27.3352  37.1892  38.2290 C.ar           1 <1>                0.0000
      5 C5          28.6304  36.9993  37.8294 C.ar           1 <1>                0.0000
      6 C6          29.5770  36.6059  38.7911 C.ar           1 <1>                0.0000
      7 C7          30.9796  36.3898  38.4123 C.2            1 <1>                0.0000
      8 O8          31.3518  36.6531  37.2884 O.2            1 <1>                0.0000
      9 C9          29.1626  36.4241  40.1143 C.ar           1 <1>                0.0000
     10 N10         27.9064  36.6234  40.4535 N.ar           1 <1>                0.0000
     11 H11         24.3767  37.1982  41.5362 H              1 <1>                0.0000
     12 H12         25.6937  36.0075  41.6641 H              1 <1>                0.0000
     13 H13         26.0283  37.7361  41.9253 H              1 <1>                0.0000
     14 H14         26.5834  37.4911  37.5148 H              1 <1>                0.0000
     15 H15         28.9182  37.1478  36.7991 H              1 <1>                0.0000
     16 H16         31.6795  35.9961  39.1346 H              1 <1>                0.0000
     17 H17         29.8789  36.1217  40.8638 H              1 <1>                0.0000
@<TRIPOS>BOND
    1    1    2 1     
    2    1   11 1     
    3    1   12 1     
    4    1   13 1     
    5    2    3 1     
    6    3    4 ar    
    7    3   10 ar    
    8    4    5 ar    
    9    4   14 1     
   10    5    6 ar    
   11    5   15 1     
   12    6    7 1     
   13    6    9 ar    
   14    7    8 2     
   15    7   16 1     
   16    9   10 ar    
   17    9   17 1     
@<TRIPOS>SUBSTRUCTURE
      1 ****           1
@<TRIPOS>COMMENT
> <Gold.Version>
2022.2.0

> <Gold.Id.Protein>
1qkm|1qkm_protein|mol2

> <Gold.Protein.RotatedTorsions>
[  496  491  490  487 ] final  -35.26 input  -89.99 | X-H torsion

> <Gold.Protein.ActiveResidues>
 MET295  LEU298  THR299  LEU301  ALA302  GLU305  TRP335  MET336  LEU339  MET340 
 GLY342  LEU343  ARG346  PHE356  ILE373  ILE376  PHE377  LEU380  LYS471  GLY472 
 MET473  HIS475  LEU476  LEU477  ASN478  MET479  VAL484  VAL487 

> <Gold.Protein.RotatedAtoms>
   36.3386   34.6155   41.8378 H   0  0  0  0  0  0  0  0  0  0  0  0  # atno 496  bound_to 491 

> <Gold.Score>
     Score     S(PLP)   S(hbond)     S(cho)   S(metal)  DE(clash)   DE(tors)     intcor
     33.92     -30.96       0.00       1.00       0.00       0.00       0.02       0.00

> <Gold.PLP.Fitness>
33.9238

> <Gold.PLP.PLP>
-30.9565

> <Gold.PLP.part.hbond>
0.0000

> <Gold.PLP.part.metal>
0.0000

> <Gold.PLP.part.buried>
-2.9283

> <Gold.PLP.part.nonpolar>
-28.2150

> <Gold.PLP.part.repulsive>
0.1571

> <Gold.PLP.ligand.clash>
0.0000

> <Gold.PLP.ligand.torsion>
0.0164

> <Gold.PLP.Chemscore.Hbond>
0.0000

> <Gold.PLP.Chemscore.CHOScore>
1.0000

> <Gold.PLP.Chemscore.Metal>
0.0000

> <Gold.Chemscore.Hbonds>
donor molecule, donor type, donor heavy atom, donor atom, acceptor molecule, acceptor atom, score
      L1  C     9    17       P1   470  1.00

> <Gold.PLP.Chemscore.Internal.Correction>
0.0001

