#       Name:                EN300-88128_i001
#       Creating user name   aseyller
#       Creation time:       Fri Apr 21 17:10:55 2023


#       File generated by GOLD software.
#

@<TRIPOS>MOLECULE
EN300-88128_i001|benzaldehydes|mol2|192|dock15
    17    17     1
SMALL
USER_CHARGES


@<TRIPOS>ATOM
      1 C1          32.1471  36.1630  37.6159 C.3            1 <1>                0.0000
      2 O2          31.4312  35.7669  38.7875 O.3            1 <1>                0.0000
      3 C3          30.1348  36.1497  38.8749 C.ar           1 <1>                0.0000
      4 C4          29.3925  35.8036  40.0008 C.ar           1 <1>                0.0000
      5 C5          28.0828  36.1914  40.0878 C.ar           1 <1>                0.0000
      6 C6          27.5317  36.9313  39.0274 C.ar           1 <1>                0.0000
      7 C7          26.1311  37.3713  39.0736 C.2            1 <1>                0.0000
      8 O8          25.5003  37.2797  40.1055 O.2            1 <1>                0.0000
      9 C9          28.3379  37.2424  37.9279 C.ar           1 <1>                0.0000
     10 N10         29.5945  36.8521  37.8902 N.ar           1 <1>                0.0000
     11 H11         33.1706  35.7927  37.6730 H              1 <1>                0.0000
     12 H12         31.6590  35.7477  36.7342 H              1 <1>                0.0000
     13 H13         32.1575  37.2507  37.5469 H              1 <1>                0.0000
     14 H14         29.8461  35.2338  40.7982 H              1 <1>                0.0000
     15 H15         27.4866  35.9346  40.9510 H              1 <1>                0.0000
     16 H16         25.6627  37.7761  38.1886 H              1 <1>                0.0000
     17 H17         27.9278  37.8100  37.1057 H              1 <1>                0.0000
@<TRIPOS>BOND
    1    1    2 1     
    2    1   11 1     
    3    1   12 1     
    4    1   13 1     
    5    2    3 1     
    6    3    4 ar    
    7    3   10 ar    
    8    4    5 ar    
    9    4   14 1     
   10    5    6 ar    
   11    5   15 1     
   12    6    7 1     
   13    6    9 ar    
   14    7    8 2     
   15    7   16 1     
   16    9   10 ar    
   17    9   17 1     
@<TRIPOS>SUBSTRUCTURE
      1 ****           1
@<TRIPOS>COMMENT
> <Gold.Version>
2022.2.0

> <Gold.Id.Protein>
1qkm|1qkm_protein|mol2

> <Gold.Protein.RotatedTorsions>
[  496  491  490  487 ] final   -6.28 input  -89.99 | X-H torsion

> <Gold.Protein.ActiveResidues>
 MET295  LEU298  THR299  LEU301  ALA302  GLU305  TRP335  MET336  LEU339  MET340 
 GLY342  LEU343  ARG346  PHE356  ILE373  ILE376  PHE377  LEU380  LYS471  GLY472 
 MET473  HIS475  LEU476  LEU477  ASN478  MET479  VAL484  VAL487 

> <Gold.Protein.RotatedAtoms>
   36.2594   34.3005   42.1803 H   0  0  0  0  0  0  0  0  0  0  0  0  # atno 496  bound_to 491 

> <Gold.Score>
     Score     S(PLP)   S(hbond)     S(cho)   S(metal)  DE(clash)   DE(tors)     intcor
     29.55     -29.61       0.00       0.00       0.00       0.00       0.03       0.00

> <Gold.PLP.Fitness>
29.5514

> <Gold.PLP.PLP>
-29.6086

> <Gold.PLP.part.hbond>
0.0000

> <Gold.PLP.part.metal>
0.0000

> <Gold.PLP.part.buried>
-3.1459

> <Gold.PLP.part.nonpolar>
-26.5020

> <Gold.PLP.part.repulsive>
0.1967

> <Gold.PLP.ligand.clash>
0.0000

> <Gold.PLP.ligand.torsion>
0.0287

> <Gold.PLP.Chemscore.Hbond>
0.0000

> <Gold.PLP.Chemscore.CHOScore>
0.0000

> <Gold.PLP.Chemscore.Metal>
0.0000

> <Gold.PLP.Chemscore.Internal.Correction>
0.0001

