#       Name:                plp ligand
#       Creating user name   aseyller
#       Creation time:       Fri Apr 21 17:10:49 2023


#       File generated by GOLD software.
#

@<TRIPOS>MOLECULE
plp ligand
    17    17     1
SMALL
USER_CHARGES


@<TRIPOS>ATOM
      1 C1           3.0200   0.9958  -0.0008 NONPOLAR       1 <1>                0.0000
      2 O2           2.3610  -0.2722  -0.0001 ACCEPTOR       1 <1>                0.0000
      3 C3           1.0065  -0.2613  -0.0004 NONPOLAR       1 <1>                0.0000
      4 C4           0.3115  -1.4677   0.0003 NONPOLAR       1 <1>                0.0000
      5 C5          -1.0571  -1.4551   0.0004 NONPOLAR       1 <1>                0.0000
      6 C6          -1.7153  -0.2132  -0.0003 NONPOLAR       1 <1>                0.0000
      7 C7          -3.1826  -0.1466   0.0002 NONPOLAR       1 <1>                0.0000
      8 O8          -3.7408   0.9302  -0.0003 ACCEPTOR       1 <1>                0.0000
      9 C9          -0.9512   0.9581  -0.0010 NONPOLAR       1 <1>                0.0000
     10 N10          0.3637   0.8970   0.0040 ACCEPTOR       1 <1>                0.0000
     11 H11          4.0994   0.8443  -0.0004                1 <1>                0.0000
     12 H12          2.7318   1.5545  -0.8913                1 <1>                0.0000
     13 H13          2.7313   1.5558   0.8886                1 <1>                0.0000
     14 H14          0.8477  -2.4052   0.0005                1 <1>                0.0000
     15 H15         -1.6182  -2.3779   0.0006                1 <1>                0.0000
     16 H16         -3.7645  -1.0565   0.0012                1 <1>                0.0000
     17 H17         -1.4434   1.9194  -0.0019                1 <1>                0.0000
@<TRIPOS>BOND
    1    1    2 1     
    2    1   11 1     
    3    1   12 1     
    4    1   13 1     
    5    2    3 1     
    6    3    4 ar    
    7    3   10 ar    
    8    4    5 ar    
    9    4   14 1     
   10    5    6 ar    
   11    5   15 1     
   12    6    7 1     
   13    6    9 ar    
   14    7    8 2     
   15    7   16 1     
   16    9   10 ar    
   17    9   17 1     
@<TRIPOS>SUBSTRUCTURE
      1 ****           1
@<TRIPOS>SET
DONOR_HYDROGENS      STATIC     ATOMS    <user>   **** ""
0
ATOM$RED        STATIC     ATOMS    COLORGROUP SYSTEM
0
