#       Name:                EN300-1425531_i002
#       Creating user name   aseyller
#       Creation time:       Fri Apr 21 18:21:52 2023


#       File generated by GOLD software.
#

@<TRIPOS>MOLECULE
EN300-1425531_i002|Sulfonylchlorides|mol2|525|dock5
    18    18     1
SMALL
USER_CHARGES


@<TRIPOS>ATOM
      1 F1          31.8203  33.6592  37.7995 F              1 <1>                0.0000
      2 C2          31.8034  34.6380  38.7990 C.3            1 <1>                0.0000
      3 C3          30.3917  34.9750  39.3073 C.3            1 <1>                0.0000
      4 C4          30.3291  36.0344  38.1945 C.3            1 <1>                0.0000
      5 C5          29.6637  37.3417  38.6294 C.3            1 <1>                0.0000
      6 S6          29.0777  38.2383  37.1654 S.o2           1 <1>                0.0000
      7 O7          29.5849  37.6419  35.9794 O.2            1 <1>                0.0000
      8 O8          27.6986  38.5557  37.2939 O.2            1 <1>                0.0000
      9 Cl9         30.0118  40.0268  37.2623 Cl             1 <1>                0.0000
     10 C10         31.8651  36.0751  38.2549 C.3            1 <1>                0.0000
     11 H11         32.5193  34.4406  39.5969 H              1 <1>                0.0000
     12 H12         29.6757  34.1632  39.1782 H              1 <1>                0.0000
     13 H13         30.3786  35.3963  40.3125 H              1 <1>                0.0000
     14 H14         29.9379  35.6538  37.2509 H              1 <1>                0.0000
     15 H15         28.8191  37.1200  39.2819 H              1 <1>                0.0000
     16 H16         30.3864  37.9560  39.1665 H              1 <1>                0.0000
     17 H17         32.2549  36.7972  38.9724 H              1 <1>                0.0000
     18 H18         32.3388  36.1514  37.2762 H              1 <1>                0.0000
@<TRIPOS>BOND
    1    1    2 1     
    2    2    3 1     
    3    2   10 1     
    4    2   11 1     
    5    3    4 1     
    6    3   12 1     
    7    3   13 1     
    8    4    5 1     
    9    4   10 1     
   10    4   14 1     
   11    5    6 1     
   12    5   15 1     
   13    5   16 1     
   14    6    7 2     
   15    6    8 2     
   16    6    9 1     
   17   10   17 1     
   18   10   18 1     
@<TRIPOS>SUBSTRUCTURE
      1 ****           1
@<TRIPOS>COMMENT
> <Gold.Version>
2022.2.0

> <Gold.Id.Protein>
1qkm|1qkm_protein|mol2

> <Gold.Protein.RotatedTorsions>
[  496  491  490  487 ] final   41.68 input  -89.99 | X-H torsion

> <Gold.Protein.ActiveResidues>
 MET295  LEU298  THR299  LEU301  ALA302  GLU305  TRP335  MET336  LEU339  MET340 
 GLY342  LEU343  ARG346  PHE356  ILE373  ILE376  PHE377  LEU380  LYS471  GLY472 
 MET473  HIS475  LEU476  LEU477  ASN478  MET479  VAL484  VAL487 

> <Gold.Protein.RotatedAtoms>
   36.4145   33.5761   42.3770 H   0  0  0  0  0  0  0  0  0  0  0  0  # atno 496  bound_to 491 

> <Gold.Score>
     Score     S(PLP)   S(hbond)     S(cho)   S(metal)  DE(clash)   DE(tors)     intcor
     30.09     -30.81       0.00       0.00       0.00       0.00       0.49       0.26

> <Gold.PLP.Fitness>
30.0865

> <Gold.PLP.PLP>
-30.8076

> <Gold.PLP.part.hbond>
0.0000

> <Gold.PLP.part.metal>
0.0000

> <Gold.PLP.part.buried>
-0.2113

> <Gold.PLP.part.nonpolar>
-30.1569

> <Gold.PLP.part.repulsive>
0.0000

> <Gold.PLP.ligand.clash>
0.0000

> <Gold.PLP.ligand.torsion>
0.4914

> <Gold.PLP.Chemscore.Hbond>
0.0000

> <Gold.PLP.Chemscore.CHOScore>
0.0000

> <Gold.PLP.Chemscore.Metal>
0.0000

> <Gold.PLP.Chemscore.Internal.Correction>
0.2616

