#       Name:                EN300-1425531_i002
#       Creating user name   aseyller
#       Creation time:       Fri Apr 21 18:21:55 2023


#       File generated by GOLD software.
#

@<TRIPOS>MOLECULE
EN300-1425531_i002|Sulfonylchlorides|mol2|525|dock13
    18    18     1
SMALL
USER_CHARGES


@<TRIPOS>ATOM
      1 F1          26.5443  36.1015  38.5067 F              1 <1>                0.0000
      2 C2          27.3049  37.2336  38.8183 C.3            1 <1>                0.0000
      3 C3          28.0415  37.8329  37.6087 C.3            1 <1>                0.0000
      4 C4          29.2071  36.8900  37.9507 C.3            1 <1>                0.0000
      5 C5          30.5851  37.5339  37.7853 C.3            1 <1>                0.0000
      6 S6          30.9446  37.7480  36.0202 S.o2           1 <1>                0.0000
      7 O7          30.0309  36.9988  35.2308 O.2            1 <1>                0.0000
      8 O8          31.2175  39.1118  35.7288 O.2            1 <1>                0.0000
      9 Cl9         32.7165  36.8165  35.7500 Cl             1 <1>                0.0000
     10 C10         28.6904  36.9041  39.3990 C.3            1 <1>                0.0000
     11 H11         26.7499  37.9694  39.4001 H              1 <1>                0.0000
     12 H12         27.5656  37.6103  36.6536 H              1 <1>                0.0000
     13 H13         28.2854  38.8888  37.7254 H              1 <1>                0.0000
     14 H14         29.1352  35.9145  37.4695 H              1 <1>                0.0000
     15 H15         30.5935  38.5060  38.2783 H              1 <1>                0.0000
     16 H16         31.3424  36.8918  38.2350 H              1 <1>                0.0000
     17 H17         29.1117  37.7062  40.0051 H              1 <1>                0.0000
     18 H18         28.7383  35.9318  39.8893 H              1 <1>                0.0000
@<TRIPOS>BOND
    1    1    2 1     
    2    2    3 1     
    3    2   10 1     
    4    2   11 1     
    5    3    4 1     
    6    3   12 1     
    7    3   13 1     
    8    4    5 1     
    9    4   10 1     
   10    4   14 1     
   11    5    6 1     
   12    5   15 1     
   13    5   16 1     
   14    6    7 2     
   15    6    8 2     
   16    6    9 1     
   17   10   17 1     
   18   10   18 1     
@<TRIPOS>SUBSTRUCTURE
      1 ****           1
@<TRIPOS>COMMENT
> <Gold.Version>
2022.2.0

> <Gold.Id.Protein>
1qkm|1qkm_protein|mol2

> <Gold.Protein.RotatedTorsions>
[  496  491  490  487 ] final   42.38 input  -89.99 | X-H torsion

> <Gold.Protein.ActiveResidues>
 MET295  LEU298  THR299  LEU301  ALA302  GLU305  TRP335  MET336  LEU339  MET340 
 GLY342  LEU343  ARG346  PHE356  ILE373  ILE376  PHE377  LEU380  LYS471  GLY472 
 MET473  HIS475  LEU476  LEU477  ASN478  MET479  VAL484  VAL487 

> <Gold.Protein.RotatedAtoms>
   36.4192   33.5655   42.3757 H   0  0  0  0  0  0  0  0  0  0  0  0  # atno 496  bound_to 491 

> <Gold.Score>
     Score     S(PLP)   S(hbond)     S(cho)   S(metal)  DE(clash)   DE(tors)     intcor
     29.12     -29.19       0.00       0.00       0.00       0.00       0.16       0.26

> <Gold.PLP.Fitness>
29.1222

> <Gold.PLP.PLP>
-29.1864

> <Gold.PLP.part.hbond>
0.0000

> <Gold.PLP.part.metal>
0.0000

> <Gold.PLP.part.buried>
-2.1158

> <Gold.PLP.part.nonpolar>
-27.0300

> <Gold.PLP.part.repulsive>
0.0433

> <Gold.PLP.ligand.clash>
0.0000

> <Gold.PLP.ligand.torsion>
0.1629

> <Gold.PLP.Chemscore.Hbond>
0.0000

> <Gold.PLP.Chemscore.CHOScore>
0.0000

> <Gold.PLP.Chemscore.Metal>
0.0000

> <Gold.PLP.Chemscore.Internal.Correction>
0.2616

