#       Name:                EN300-1425531_i002
#       Creating user name   aseyller
#       Creation time:       Fri Apr 21 18:21:51 2023


#       File generated by GOLD software.
#

@<TRIPOS>MOLECULE
EN300-1425531_i002|Sulfonylchlorides|mol2|525|dock3
    18    18     1
SMALL
USER_CHARGES


@<TRIPOS>ATOM
      1 F1          29.1422  36.9993  41.2424 F              1 <1>                0.0000
      2 C2          28.7854  36.1333  40.2032 C.3            1 <1>                0.0000
      3 C3          29.9709  35.7095  39.3202 C.3            1 <1>                0.0000
      4 C4          29.6727  36.9494  38.4609 C.3            1 <1>                0.0000
      5 C5          29.8151  36.7021  36.9578 C.3            1 <1>                0.0000
      6 S6          31.5535  36.8921  36.4756 S.o2           1 <1>                0.0000
      7 O7          31.8027  36.2360  35.2400 O.2            1 <1>                0.0000
      8 O8          31.9897  38.2261  36.6979 O.2            1 <1>                0.0000
      9 Cl9         32.5755  35.8008  37.8340 Cl             1 <1>                0.0000
     10 C10         28.2235  36.8541  38.9663 C.3            1 <1>                0.0000
     11 H11         28.1713  35.2982  40.5401 H              1 <1>                0.0000
     12 H12         30.9331  35.7531  39.8306 H              1 <1>                0.0000
     13 H13         29.8106  34.7668  38.7970 H              1 <1>                0.0000
     14 H14         30.1944  37.8468  38.7935 H              1 <1>                0.0000
     15 H15         29.4812  35.6915  36.7225 H              1 <1>                0.0000
     16 H16         29.2058  37.4224  36.4117 H              1 <1>                0.0000
     17 H17         27.5854  36.2243  38.3464 H              1 <1>                0.0000
     18 H18         27.7749  37.8217  39.1912 H              1 <1>                0.0000
@<TRIPOS>BOND
    1    1    2 1     
    2    2    3 1     
    3    2   10 1     
    4    2   11 1     
    5    3    4 1     
    6    3   12 1     
    7    3   13 1     
    8    4    5 1     
    9    4   10 1     
   10    4   14 1     
   11    5    6 1     
   12    5   15 1     
   13    5   16 1     
   14    6    7 2     
   15    6    8 2     
   16    6    9 1     
   17   10   17 1     
   18   10   18 1     
@<TRIPOS>SUBSTRUCTURE
      1 ****           1
@<TRIPOS>COMMENT
> <Gold.Version>
2022.2.0

> <Gold.Id.Protein>
1qkm|1qkm_protein|mol2

> <Gold.Protein.RotatedTorsions>
[  496  491  490  487 ] final -155.39 input  -89.99 | X-H torsion

> <Gold.Protein.ActiveResidues>
 MET295  LEU298  THR299  LEU301  ALA302  GLU305  TRP335  MET336  LEU339  MET340 
 GLY342  LEU343  ARG346  PHE356  ILE373  ILE376  PHE377  LEU380  LYS471  GLY472 
 MET473  HIS475  LEU476  LEU477  ASN478  MET479  VAL484  VAL487 

> <Gold.Protein.RotatedAtoms>
   37.2567   33.8355   40.7328 H   0  0  0  0  0  0  0  0  0  0  0  0  # atno 496  bound_to 491 

> <Gold.Score>
     Score     S(PLP)   S(hbond)     S(cho)   S(metal)  DE(clash)   DE(tors)     intcor
     29.12     -29.55       0.00       0.00       0.00       0.00       0.35       0.26

> <Gold.PLP.Fitness>
29.1187

> <Gold.PLP.PLP>
-29.5496

> <Gold.PLP.part.hbond>
0.0000

> <Gold.PLP.part.metal>
0.0000

> <Gold.PLP.part.buried>
-1.5409

> <Gold.PLP.part.nonpolar>
-27.6252

> <Gold.PLP.part.repulsive>
0.0837

> <Gold.PLP.ligand.clash>
0.0000

> <Gold.PLP.ligand.torsion>
0.3462

> <Gold.PLP.Chemscore.Hbond>
0.0000

> <Gold.PLP.Chemscore.CHOScore>
0.0000

> <Gold.PLP.Chemscore.Metal>
0.0000

> <Gold.PLP.Chemscore.Internal.Correction>
0.2616

