#       Name:                EN300-1425531_i002
#       Creating user name   aseyller
#       Creation time:       Fri Apr 21 18:21:56 2023


#       File generated by GOLD software.
#

@<TRIPOS>MOLECULE
EN300-1425531_i002|Sulfonylchlorides|mol2|525|dock14
    18    18     1
SMALL
USER_CHARGES


@<TRIPOS>ATOM
      1 F1          27.8875  35.6008  39.2605 F              1 <1>                0.0000
      2 C2          29.1213  36.0907  39.7020 C.3            1 <1>                0.0000
      3 C3          29.6809  37.2268  38.8297 C.3            1 <1>                0.0000
      4 C4          30.3571  36.1367  37.9816 C.3            1 <1>                0.0000
      5 C5          31.7724  36.5016  37.5296 C.3            1 <1>                0.0000
      6 S6          31.6919  37.4000  35.9558 S.o2           1 <1>                0.0000
      7 O7          30.5601  36.9861  35.2028 O.2            1 <1>                0.0000
      8 O8          31.9764  38.7782  36.1532 O.2            1 <1>                0.0000
      9 Cl9         33.2710  36.7114  34.9009 Cl             1 <1>                0.0000
     10 C10         30.3208  35.2484  39.2364 C.3            1 <1>                0.0000
     11 H11         29.1308  36.3141  40.7688 H              1 <1>                0.0000
     12 H12         28.9129  37.7839  38.2930 H              1 <1>                0.0000
     13 H13         30.3857  37.8726  39.3533 H              1 <1>                0.0000
     14 H14         29.7340  35.7686  37.1664 H              1 <1>                0.0000
     15 H15         32.2437  37.1318  38.2840 H              1 <1>                0.0000
     16 H16         32.3580  35.5916  37.3990 H              1 <1>                0.0000
     17 H17         31.2007  35.3534  39.8712 H              1 <1>                0.0000
     18 H18         30.0695  34.2084  39.0282 H              1 <1>                0.0000
@<TRIPOS>BOND
    1    1    2 1     
    2    2    3 1     
    3    2   10 1     
    4    2   11 1     
    5    3    4 1     
    6    3   12 1     
    7    3   13 1     
    8    4    5 1     
    9    4   10 1     
   10    4   14 1     
   11    5    6 1     
   12    5   15 1     
   13    5   16 1     
   14    6    7 2     
   15    6    8 2     
   16    6    9 1     
   17   10   17 1     
   18   10   18 1     
@<TRIPOS>SUBSTRUCTURE
      1 ****           1
@<TRIPOS>COMMENT
> <Gold.Version>
2022.2.0

> <Gold.Id.Protein>
1qkm|1qkm_protein|mol2

> <Gold.Protein.RotatedTorsions>
[  496  491  490  487 ] final   10.94 input  -89.99 | X-H torsion

> <Gold.Protein.ActiveResidues>
 MET295  LEU298  THR299  LEU301  ALA302  GLU305  TRP335  MET336  LEU339  MET340 
 GLY342  LEU343  ARG346  PHE356  ILE373  ILE376  PHE377  LEU380  LYS471  GLY472 
 MET473  HIS475  LEU476  LEU477  ASN478  MET479  VAL484  VAL487 

> <Gold.Protein.RotatedAtoms>
   36.2753   34.0520   42.3133 H   0  0  0  0  0  0  0  0  0  0  0  0  # atno 496  bound_to 491 

> <Gold.Score>
     Score     S(PLP)   S(hbond)     S(cho)   S(metal)  DE(clash)   DE(tors)     intcor
     28.82     -29.74       0.00       0.00       0.00       0.00       0.59       0.26

> <Gold.PLP.Fitness>
28.8180

> <Gold.PLP.PLP>
-29.7430

> <Gold.PLP.part.hbond>
0.0000

> <Gold.PLP.part.metal>
0.0000

> <Gold.PLP.part.buried>
-1.0981

> <Gold.PLP.part.nonpolar>
-28.6816

> <Gold.PLP.part.repulsive>
0.0611

> <Gold.PLP.ligand.clash>
0.0000

> <Gold.PLP.ligand.torsion>
0.5933

> <Gold.PLP.Chemscore.Hbond>
0.0000

> <Gold.PLP.Chemscore.CHOScore>
0.0000

> <Gold.PLP.Chemscore.Metal>
0.0000

> <Gold.PLP.Chemscore.Internal.Correction>
0.2616

