#       Name:                EN300-1425531_i002
#       Creating user name   aseyller
#       Creation time:       Fri Apr 21 18:21:57 2023


#       File generated by GOLD software.
#

@<TRIPOS>MOLECULE
EN300-1425531_i002|Sulfonylchlorides|mol2|525|dock17
    18    18     1
SMALL
USER_CHARGES


@<TRIPOS>ATOM
      1 F1          27.0795  35.8177  40.9594 F              1 <1>                0.0000
      2 C2          28.4629  35.6511  40.8342 C.3            1 <1>                0.0000
      3 C3          29.2460  36.9746  40.8438 C.3            1 <1>                0.0000
      4 C4          29.0580  37.0061  39.3179 C.3            1 <1>                0.0000
      5 C5          30.2946  37.4896  38.5578 C.3            1 <1>                0.0000
      6 S6          29.7785  38.3281  37.0343 S.o2           1 <1>                0.0000
      7 O7          30.2862  39.6549  36.9990 O.2            1 <1>                0.0000
      8 O8          29.9160  37.4611  35.9169 O.2            1 <1>                0.0000
      9 Cl9         27.7828  38.5636  37.2397 Cl             1 <1>                0.0000
     10 C10         28.9330  35.4747  39.3805 C.3            1 <1>                0.0000
     11 H11         28.8627  34.9022  41.5177 H              1 <1>                0.0000
     12 H12         28.7314  37.7826  41.3640 H              1 <1>                0.0000
     13 H13         30.2852  36.8647  41.1535 H              1 <1>                0.0000
     14 H14         28.1434  37.5076  39.0010 H              1 <1>                0.0000
     15 H15         30.8565  38.1841  39.1824 H              1 <1>                0.0000
     16 H16         30.9239  36.6356  38.3073 H              1 <1>                0.0000
     17 H17         29.8867  34.9547  39.2902 H              1 <1>                0.0000
     18 H18         28.1658  35.0717  38.7194 H              1 <1>                0.0000
@<TRIPOS>BOND
    1    1    2 1     
    2    2    3 1     
    3    2   10 1     
    4    2   11 1     
    5    3    4 1     
    6    3   12 1     
    7    3   13 1     
    8    4    5 1     
    9    4   10 1     
   10    4   14 1     
   11    5    6 1     
   12    5   15 1     
   13    5   16 1     
   14    6    7 2     
   15    6    8 2     
   16    6    9 1     
   17   10   17 1     
   18   10   18 1     
@<TRIPOS>SUBSTRUCTURE
      1 ****           1
@<TRIPOS>COMMENT
> <Gold.Version>
2022.2.0

> <Gold.Id.Protein>
1qkm|1qkm_protein|mol2

> <Gold.Protein.RotatedTorsions>
[  496  491  490  487 ] final  152.43 input  -89.99 | X-H torsion

> <Gold.Protein.ActiveResidues>
 MET295  LEU298  THR299  LEU301  ALA302  GLU305  TRP335  MET336  LEU339  MET340 
 GLY342  LEU343  ARG346  PHE356  ILE373  ILE376  PHE377  LEU380  LYS471  GLY472 
 MET473  HIS475  LEU476  LEU477  ASN478  MET479  VAL484  VAL487 

> <Gold.Protein.RotatedAtoms>
   37.2723   33.1268   41.1638 H   0  0  0  0  0  0  0  0  0  0  0  0  # atno 496  bound_to 491 

> <Gold.Score>
     Score     S(PLP)   S(hbond)     S(cho)   S(metal)  DE(clash)   DE(tors)     intcor
     31.03     -32.27       0.00       0.00       0.00       0.00       0.75       0.26

> <Gold.PLP.Fitness>
31.0295

> <Gold.PLP.PLP>
-32.2748

> <Gold.PLP.part.hbond>
0.0000

> <Gold.PLP.part.metal>
0.0000

> <Gold.PLP.part.buried>
-2.0020

> <Gold.PLP.part.nonpolar>
-30.3130

> <Gold.PLP.part.repulsive>
0.0000

> <Gold.PLP.ligand.clash>
0.0000

> <Gold.PLP.ligand.torsion>
0.7535

> <Gold.PLP.Chemscore.Hbond>
0.0000

> <Gold.PLP.Chemscore.CHOScore>
0.0000

> <Gold.PLP.Chemscore.Metal>
0.0000

> <Gold.PLP.Chemscore.Internal.Correction>
0.2616

