#       Name:                EN300-1425531_i002
#       Creating user name   aseyller
#       Creation time:       Fri Apr 21 18:21:54 2023


#       File generated by GOLD software.
#

@<TRIPOS>MOLECULE
EN300-1425531_i002|Sulfonylchlorides|mol2|525|dock10
    18    18     1
SMALL
USER_CHARGES


@<TRIPOS>ATOM
      1 F1          29.1003  36.9518  41.6616 F              1 <1>                0.0000
      2 C2          28.8072  36.0748  40.6118 C.3            1 <1>                0.0000
      3 C3          29.8622  36.0786  39.4930 C.3            1 <1>                0.0000
      4 C4          29.0537  37.2130  38.8418 C.3            1 <1>                0.0000
      5 C5          28.9567  37.1007  37.3191 C.3            1 <1>                0.0000
      6 S6          30.3636  37.9571  36.5588 S.o2           1 <1>                0.0000
      7 O7          31.5708  37.6279  37.2323 O.2            1 <1>                0.0000
      8 O8          30.2759  37.8992  35.1417 O.2            1 <1>                0.0000
      9 Cl9         30.0641  39.9061  36.9973 Cl             1 <1>                0.0000
     10 C10         27.8254  36.6553  39.5801 C.3            1 <1>                0.0000
     11 H11         28.5401  35.0759  40.9568 H              1 <1>                0.0000
     12 H12         30.8530  36.3854  39.8283 H              1 <1>                0.0000
     13 H13         29.8785  35.1609  38.9052 H              1 <1>                0.0000
     14 H14         29.3505  38.2076  39.1749 H              1 <1>                0.0000
     15 H15         28.9721  36.0497  37.0305 H              1 <1>                0.0000
     16 H16         28.0269  37.5572  36.9796 H              1 <1>                0.0000
     17 H17         27.2848  35.8952  39.0160 H              1 <1>                0.0000
     18 H18         27.1718  37.4275  39.9858 H              1 <1>                0.0000
@<TRIPOS>BOND
    1    1    2 1     
    2    2    3 1     
    3    2   10 1     
    4    2   11 1     
    5    3    4 1     
    6    3   12 1     
    7    3   13 1     
    8    4    5 1     
    9    4   10 1     
   10    4   14 1     
   11    5    6 1     
   12    5   15 1     
   13    5   16 1     
   14    6    7 2     
   15    6    8 2     
   16    6    9 1     
   17   10   17 1     
   18   10   18 1     
@<TRIPOS>SUBSTRUCTURE
      1 ****           1
@<TRIPOS>COMMENT
> <Gold.Version>
2022.2.0

> <Gold.Id.Protein>
1qkm|1qkm_protein|mol2

> <Gold.Protein.RotatedTorsions>
[  496  491  490  487 ] final  -29.01 input  -89.99 | X-H torsion

> <Gold.Protein.ActiveResidues>
 MET295  LEU298  THR299  LEU301  ALA302  GLU305  TRP335  MET336  LEU339  MET340 
 GLY342  LEU343  ARG346  PHE356  ILE373  ILE376  PHE377  LEU380  LYS471  GLY472 
 MET473  HIS475  LEU476  LEU477  ASN478  MET479  VAL484  VAL487 

> <Gold.Protein.RotatedAtoms>
   36.3108   34.5620   41.9210 H   0  0  0  0  0  0  0  0  0  0  0  0  # atno 496  bound_to 491 

> <Gold.Score>
     Score     S(PLP)   S(hbond)     S(cho)   S(metal)  DE(clash)   DE(tors)     intcor
     31.16     -31.52       0.00       0.00       0.00       0.00       0.31       0.26

> <Gold.PLP.Fitness>
31.1615

> <Gold.PLP.PLP>
-31.5157

> <Gold.PLP.part.hbond>
0.0000

> <Gold.PLP.part.metal>
0.0000

> <Gold.PLP.part.buried>
-1.7049

> <Gold.PLP.part.nonpolar>
-30.1035

> <Gold.PLP.part.repulsive>
0.0257

> <Gold.PLP.ligand.clash>
0.0000

> <Gold.PLP.ligand.torsion>
0.3079

> <Gold.PLP.Chemscore.Hbond>
0.0000

> <Gold.PLP.Chemscore.CHOScore>
0.0000

> <Gold.PLP.Chemscore.Metal>
0.0000

> <Gold.PLP.Chemscore.Internal.Correction>
0.2616

