#       Name:                EN300-1425531_i002
#       Creating user name   aseyller
#       Creation time:       Fri Apr 21 18:21:53 2023


#       File generated by GOLD software.
#

@<TRIPOS>MOLECULE
EN300-1425531_i002|Sulfonylchlorides|mol2|525|dock8
    18    18     1
SMALL
USER_CHARGES


@<TRIPOS>ATOM
      1 F1          26.0903  36.8741  40.3873 F              1 <1>                0.0000
      2 C2          27.0905  35.9074  40.2377 C.3            1 <1>                0.0000
      3 C3          28.4548  36.3407  40.7996 C.3            1 <1>                0.0000
      4 C4          28.7488  36.9364  39.4127 C.3            1 <1>                0.0000
      5 C5          30.1871  36.7127  38.9419 C.3            1 <1>                0.0000
      6 S6          30.4086  37.4540  37.3011 S.o2           1 <1>                0.0000
      7 O7          31.7798  37.4392  36.9283 O.2            1 <1>                0.0000
      8 O8          29.4016  36.9984  36.4081 O.2            1 <1>                0.0000
      9 Cl9         29.9869  39.4110  37.5712 Cl             1 <1>                0.0000
     10 C10         27.7495  35.9129  38.8481 C.3            1 <1>                0.0000
     11 H11         26.7759  34.9179  40.5693 H              1 <1>                0.0000
     12 H12         28.3841  37.0882  41.5899 H              1 <1>                0.0000
     13 H13         29.1039  35.5054  41.0625 H              1 <1>                0.0000
     14 H14         28.4240  37.9713  39.3043 H              1 <1>                0.0000
     15 H15         30.8767  37.1775  39.6467 H              1 <1>                0.0000
     16 H16         30.3894  35.6430  38.8875 H              1 <1>                0.0000
     17 H17         28.2057  34.9607  38.5775 H              1 <1>                0.0000
     18 H18         27.1093  36.3150  38.0629 H              1 <1>                0.0000
@<TRIPOS>BOND
    1    1    2 1     
    2    2    3 1     
    3    2   10 1     
    4    2   11 1     
    5    3    4 1     
    6    3   12 1     
    7    3   13 1     
    8    4    5 1     
    9    4   10 1     
   10    4   14 1     
   11    5    6 1     
   12    5   15 1     
   13    5   16 1     
   14    6    7 2     
   15    6    8 2     
   16    6    9 1     
   17   10   17 1     
   18   10   18 1     
@<TRIPOS>SUBSTRUCTURE
      1 ****           1
@<TRIPOS>COMMENT
> <Gold.Version>
2022.2.0

> <Gold.Id.Protein>
1qkm|1qkm_protein|mol2

> <Gold.Protein.RotatedTorsions>
[  496  491  490  487 ] final  -68.64 input  -89.99 | X-H torsion

> <Gold.Protein.ActiveResidues>
 MET295  LEU298  THR299  LEU301  ALA302  GLU305  TRP335  MET336  LEU339  MET340 
 GLY342  LEU343  ARG346  PHE356  ILE373  ILE376  PHE377  LEU380  LYS471  GLY472 
 MET473  HIS475  LEU476  LEU477  ASN478  MET479  VAL484  VAL487 

> <Gold.Protein.RotatedAtoms>
   36.5667   34.7342   41.3610 H   0  0  0  0  0  0  0  0  0  0  0  0  # atno 496  bound_to 491 

> <Gold.Score>
     Score     S(PLP)   S(hbond)     S(cho)   S(metal)  DE(clash)   DE(tors)     intcor
     31.65     -31.75       0.00       0.00       0.00       0.00       0.18       0.26

> <Gold.PLP.Fitness>
31.6467

> <Gold.PLP.PLP>
-31.7488

> <Gold.PLP.part.hbond>
0.0000

> <Gold.PLP.part.metal>
0.0000

> <Gold.PLP.part.buried>
-2.4383

> <Gold.PLP.part.nonpolar>
-29.1053

> <Gold.PLP.part.repulsive>
0.0000

> <Gold.PLP.ligand.clash>
0.0000

> <Gold.PLP.ligand.torsion>
0.1818

> <Gold.PLP.Chemscore.Hbond>
0.0000

> <Gold.PLP.Chemscore.CHOScore>
0.0000

> <Gold.PLP.Chemscore.Metal>
0.0000

> <Gold.PLP.Chemscore.Internal.Correction>
0.2616

