#       Name:                EN300-1425531_i002
#       Creating user name   aseyller
#       Creation time:       Fri Apr 21 18:21:52 2023


#       File generated by GOLD software.
#

@<TRIPOS>MOLECULE
EN300-1425531_i002|Sulfonylchlorides|mol2|525|dock4
    18    18     1
SMALL
USER_CHARGES


@<TRIPOS>ATOM
      1 F1          26.2216  36.9311  41.0593 F              1 <1>                0.0000
      2 C2          26.9673  35.8073  40.6873 C.3            1 <1>                0.0000
      3 C3          28.4529  35.8981  41.0745 C.3            1 <1>                0.0000
      4 C4          28.6861  36.5703  39.7112 C.3            1 <1>                0.0000
      5 C5          29.9724  36.1182  39.0170 C.3            1 <1>                0.0000
      6 S6          30.3596  37.2576  37.6597 S.o2           1 <1>                0.0000
      7 O7          29.9616  36.7023  36.4137 O.2            1 <1>                0.0000
      8 O8          30.0125  38.5897  38.0124 O.2            1 <1>                0.0000
      9 Cl9         32.3778  37.2742  37.5757 Cl             1 <1>                0.0000
     10 C10         27.4292  35.8325  39.2206 C.3            1 <1>                0.0000
     11 H11         26.4958  34.8699  40.9819 H              1 <1>                0.0000
     12 H12         28.6435  36.5548  41.9234 H              1 <1>                0.0000
     13 H13         28.9388  34.9273  41.1715 H              1 <1>                0.0000
     14 H14         28.5764  37.6546  39.7346 H              1 <1>                0.0000
     15 H15         30.7921  36.1172  39.7356 H              1 <1>                0.0000
     16 H16         29.8365  35.1124  38.6195 H              1 <1>                0.0000
     17 H17         27.6354  34.8437  38.8108 H              1 <1>                0.0000
     18 H18         26.7934  36.4361  38.5730 H              1 <1>                0.0000
@<TRIPOS>BOND
    1    1    2 1     
    2    2    3 1     
    3    2   10 1     
    4    2   11 1     
    5    3    4 1     
    6    3   12 1     
    7    3   13 1     
    8    4    5 1     
    9    4   10 1     
   10    4   14 1     
   11    5    6 1     
   12    5   15 1     
   13    5   16 1     
   14    6    7 2     
   15    6    8 2     
   16    6    9 1     
   17   10   17 1     
   18   10   18 1     
@<TRIPOS>SUBSTRUCTURE
      1 ****           1
@<TRIPOS>COMMENT
> <Gold.Version>
2022.2.0

> <Gold.Id.Protein>
1qkm|1qkm_protein|mol2

> <Gold.Protein.RotatedTorsions>
[  496  491  490  487 ] final   46.10 input  -89.99 | X-H torsion

> <Gold.Protein.ActiveResidues>
 MET295  LEU298  THR299  LEU301  ALA302  GLU305  TRP335  MET336  LEU339  MET340 
 GLY342  LEU343  ARG346  PHE356  ILE373  ILE376  PHE377  LEU380  LYS471  GLY472 
 MET473  HIS475  LEU476  LEU477  ASN478  MET479  VAL484  VAL487 

> <Gold.Protein.RotatedAtoms>
   36.4446   33.5106   42.3667 H   0  0  0  0  0  0  0  0  0  0  0  0  # atno 496  bound_to 491 

> <Gold.Score>
     Score     S(PLP)   S(hbond)     S(cho)   S(metal)  DE(clash)   DE(tors)     intcor
     31.21     -32.53       0.00       0.00       0.00       0.00       0.79       0.26

> <Gold.PLP.Fitness>
31.2068

> <Gold.PLP.PLP>
-32.5297

> <Gold.PLP.part.hbond>
0.0000

> <Gold.PLP.part.metal>
0.0000

> <Gold.PLP.part.buried>
-1.7574

> <Gold.PLP.part.nonpolar>
-30.2441

> <Gold.PLP.part.repulsive>
0.0000

> <Gold.PLP.ligand.clash>
0.0000

> <Gold.PLP.ligand.torsion>
0.7923

> <Gold.PLP.Chemscore.Hbond>
0.0000

> <Gold.PLP.Chemscore.CHOScore>
0.0000

> <Gold.PLP.Chemscore.Metal>
0.0000

> <Gold.PLP.Chemscore.Internal.Correction>
0.2616

