#       Name:                EN300-1425531_i002
#       Creating user name   aseyller
#       Creation time:       Fri Apr 21 18:21:58 2023


#       File generated by GOLD software.
#

@<TRIPOS>MOLECULE
EN300-1425531_i002|Sulfonylchlorides|mol2|525|dock19
    18    18     1
SMALL
USER_CHARGES


@<TRIPOS>ATOM
      1 F1          33.0652  36.5140  35.2909 F              1 <1>                0.0000
      2 C2          33.3076  36.0860  36.6006 C.3            1 <1>                0.0000
      3 C3          32.4967  34.8427  37.0023 C.3            1 <1>                0.0000
      4 C4          31.3934  35.8086  37.4655 C.3            1 <1>                0.0000
      5 C5          30.7155  35.3847  38.7698 C.3            1 <1>                0.0000
      6 S6          29.3994  36.5643  39.1785 S.o2           1 <1>                0.0000
      7 O7          29.5174  36.9952  40.5275 O.2            1 <1>                0.0000
      8 O8          29.2227  37.4996  38.1234 O.2            1 <1>                0.0000
      9 Cl9         27.7077  35.4605  39.1543 Cl             1 <1>                0.0000
     10 C10         32.5017  36.8568  37.6596 C.3            1 <1>                0.0000
     11 H11         34.3702  36.0074  36.8304 H              1 <1>                0.0000
     12 H12         32.2049  34.2197  36.1567 H              1 <1>                0.0000
     13 H13         32.9465  34.2719  37.8146 H              1 <1>                0.0000
     14 H14         30.6805  36.0651  36.6817 H              1 <1>                0.0000
     15 H15         30.2871  34.3895  38.6499 H              1 <1>                0.0000
     16 H16         31.4517  35.3689  39.5735 H              1 <1>                0.0000
     17 H17         32.9529  36.8366  38.6517 H              1 <1>                0.0000
     18 H18         32.2141  37.8599  37.3446 H              1 <1>                0.0000
@<TRIPOS>BOND
    1    1    2 1     
    2    2    3 1     
    3    2   10 1     
    4    2   11 1     
    5    3    4 1     
    6    3   12 1     
    7    3   13 1     
    8    4    5 1     
    9    4   10 1     
   10    4   14 1     
   11    5    6 1     
   12    5   15 1     
   13    5   16 1     
   14    6    7 2     
   15    6    8 2     
   16    6    9 1     
   17   10   17 1     
   18   10   18 1     
@<TRIPOS>SUBSTRUCTURE
      1 ****           1
@<TRIPOS>COMMENT
> <Gold.Version>
2022.2.0

> <Gold.Id.Protein>
1qkm|1qkm_protein|mol2

> <Gold.Protein.RotatedTorsions>
[  496  491  490  487 ] final -152.94 input  -89.99 | X-H torsion

> <Gold.Protein.ActiveResidues>
 MET295  LEU298  THR299  LEU301  ALA302  GLU305  TRP335  MET336  LEU339  MET340 
 GLY342  LEU343  ARG346  PHE356  ILE373  ILE376  PHE377  LEU380  LYS471  GLY472 
 MET473  HIS475  LEU476  LEU477  ASN478  MET479  VAL484  VAL487 

> <Gold.Protein.RotatedAtoms>
   37.2456   33.8739   40.7274 H   0  0  0  0  0  0  0  0  0  0  0  0  # atno 496  bound_to 491 

> <Gold.Score>
     Score     S(PLP)   S(hbond)     S(cho)   S(metal)  DE(clash)   DE(tors)     intcor
     31.52     -31.68       0.00       0.00       0.00       0.00       0.21       0.26

> <Gold.PLP.Fitness>
31.5223

> <Gold.PLP.PLP>
-31.6757

> <Gold.PLP.part.hbond>
0.0000

> <Gold.PLP.part.metal>
0.0000

> <Gold.PLP.part.buried>
-3.2338

> <Gold.PLP.part.nonpolar>
-29.1092

> <Gold.PLP.part.repulsive>
0.0882

> <Gold.PLP.ligand.clash>
0.0000

> <Gold.PLP.ligand.torsion>
0.2075

> <Gold.PLP.Chemscore.Hbond>
0.0000

> <Gold.PLP.Chemscore.CHOScore>
0.0000

> <Gold.PLP.Chemscore.Metal>
0.0000

> <Gold.PLP.Chemscore.Internal.Correction>
0.2616

