#       Name:                EN300-1425531_i002
#       Creating user name   aseyller
#       Creation time:       Fri Apr 21 18:21:54 2023


#       File generated by GOLD software.
#

@<TRIPOS>MOLECULE
EN300-1425531_i002|Sulfonylchlorides|mol2|525|dock11
    18    18     1
SMALL
USER_CHARGES


@<TRIPOS>ATOM
      1 F1          32.5587  35.1991  36.3470 F              1 <1>                0.0000
      2 C2          32.6404  35.8415  37.5871 C.3            1 <1>                0.0000
      3 C3          31.5447  35.4117  38.5769 C.3            1 <1>                0.0000
      4 C4          30.6810  36.5402  37.9893 C.3            1 <1>                0.0000
      5 C5          29.8700  37.3016  39.0396 C.3            1 <1>                0.0000
      6 S6          28.4735  36.2793  39.5833 S.o2           1 <1>                0.0000
      7 O7          27.2411  36.8771  39.2050 O.2            1 <1>                0.0000
      8 O8          28.7311  34.9058  39.3260 O.2            1 <1>                0.0000
      9 Cl9         28.4986  36.4221  41.5981 Cl             1 <1>                0.0000
     10 C10         31.9954  37.2376  37.6013 C.3            1 <1>                0.0000
     11 H11         33.6446  35.8187  38.0103 H              1 <1>                0.0000
     12 H12         31.1496  34.4141  38.3847 H              1 <1>                0.0000
     13 H13         31.8146  35.5672  39.6214 H              1 <1>                0.0000
     14 H14         30.0806  36.2301  37.1339 H              1 <1>                0.0000
     15 H15         30.5066  37.5311  39.8942 H              1 <1>                0.0000
     16 H16         29.4946  38.2289  38.6068 H              1 <1>                0.0000
     17 H17         32.3885  37.8923  38.3791 H              1 <1>                0.0000
     18 H18         31.9643  37.7141  36.6214 H              1 <1>                0.0000
@<TRIPOS>BOND
    1    1    2 1     
    2    2    3 1     
    3    2   10 1     
    4    2   11 1     
    5    3    4 1     
    6    3   12 1     
    7    3   13 1     
    8    4    5 1     
    9    4   10 1     
   10    4   14 1     
   11    5    6 1     
   12    5   15 1     
   13    5   16 1     
   14    6    7 2     
   15    6    8 2     
   16    6    9 1     
   17   10   17 1     
   18   10   18 1     
@<TRIPOS>SUBSTRUCTURE
      1 ****           1
@<TRIPOS>COMMENT
> <Gold.Version>
2022.2.0

> <Gold.Id.Protein>
1qkm|1qkm_protein|mol2

> <Gold.Protein.RotatedTorsions>
[  496  491  490  487 ] final -145.12 input  -89.99 | X-H torsion

> <Gold.Protein.ActiveResidues>
 MET295  LEU298  THR299  LEU301  ALA302  GLU305  TRP335  MET336  LEU339  MET340 
 GLY342  LEU343  ARG346  PHE356  ILE373  ILE376  PHE377  LEU380  LYS471  GLY472 
 MET473  HIS475  LEU476  LEU477  ASN478  MET479  VAL484  VAL487 

> <Gold.Protein.RotatedAtoms>
   37.2048   33.9956   40.7202 H   0  0  0  0  0  0  0  0  0  0  0  0  # atno 496  bound_to 491 

> <Gold.Score>
     Score     S(PLP)   S(hbond)     S(cho)   S(metal)  DE(clash)   DE(tors)     intcor
     32.31     -32.68       0.00       0.00       0.00       0.00       0.32       0.26

> <Gold.PLP.Fitness>
32.3075

> <Gold.PLP.PLP>
-32.6825

> <Gold.PLP.part.hbond>
0.0000

> <Gold.PLP.part.metal>
0.0000

> <Gold.PLP.part.buried>
-2.9000

> <Gold.PLP.part.nonpolar>
-29.8832

> <Gold.PLP.part.repulsive>
0.0494

> <Gold.PLP.ligand.clash>
0.0000

> <Gold.PLP.ligand.torsion>
0.3183

> <Gold.PLP.Chemscore.Hbond>
0.0000

> <Gold.PLP.Chemscore.CHOScore>
0.0000

> <Gold.PLP.Chemscore.Metal>
0.0000

> <Gold.PLP.Chemscore.Internal.Correction>
0.2616

