#       Name:                EN300-1425531_i002
#       Creating user name   aseyller
#       Creation time:       Fri Apr 21 18:21:50 2023


#       File generated by GOLD software.
#

@<TRIPOS>MOLECULE
EN300-1425531_i002
    18    18     1
SMALL
USER_CHARGES


@<TRIPOS>ATOM
      1 F1          -2.9125  -0.9723  -0.4481 F              1 <1>                0.0000
      2 C2          -2.2203  -0.0370   0.3286 C.3            1 <1>                0.0000
      3 C3          -1.3790   0.9490  -0.4990 C.3            1 <1>                0.0000
      4 C4          -0.2294  -0.0671  -0.3957 C.3            1 <1>                0.0000
      5 C5           1.1398   0.5773  -0.1705 C.3            1 <1>                0.0000
      6 S6           2.4249  -0.7023  -0.2136 S.o2           1 <1>                0.0000
      7 O7           2.3123  -1.5601   0.9137 O.2            1 <1>                0.0000
      8 O8           2.5586  -1.2307  -1.5259 O.2            1 <1>                0.0000
      9 Cl9          4.1488   0.3040   0.0964 Cl             1 <1>                0.0000
     10 C10         -0.8941  -0.5692   0.8970 C.3            1 <1>                0.0000
     11 H11         -2.8531   0.4465   1.0728 H              1 <1>                0.0000
     12 H12         -1.7466   1.0905  -1.5154 H              1 <1>                0.0000
     13 H13         -1.1781   1.8893   0.0142 H              1 <1>                0.0000
     14 H14         -0.2237  -0.8032  -1.1997 H              1 <1>                0.0000
     15 H15          1.3301   1.3099  -0.9548 H              1 <1>                0.0000
     16 H16          1.1529   1.0728   0.8004 H              1 <1>                0.0000
     17 H17         -0.5606  -0.0439   1.7919 H              1 <1>                0.0000
     18 H18         -0.8703  -1.6533   1.0076 H              1 <1>                0.0000
@<TRIPOS>BOND
    1    1    2 1     
    2    2    3 1     
    3    2   10 1     
    4    2   11 1     
    5    3    4 1     
    6    3   12 1     
    7    3   13 1     
    8    4    5 1     
    9    4   10 1     
   10    4   14 1     
   11    5    6 1     
   12    5   15 1     
   13    5   16 1     
   14    6    7 2     
   15    6    8 2     
   16    6    9 1     
   17   10   17 1     
   18   10   18 1     
@<TRIPOS>SUBSTRUCTURE
      1 ****           1
