#       Name:                EN300-1425531_i002
#       Creating user name   aseyller
#       Creation time:       Fri Apr 21 18:21:57 2023


#       File generated by GOLD software.
#

@<TRIPOS>MOLECULE
EN300-1425531_i002|Sulfonylchlorides|mol2|525|dock18
    18    18     1
SMALL
USER_CHARGES


@<TRIPOS>ATOM
      1 F1          31.6141  33.6758  38.4542 F              1 <1>                0.0000
      2 C2          32.0637  34.9590  38.7832 C.3            1 <1>                0.0000
      3 C3          31.0335  36.0646  38.4980 C.3            1 <1>                0.0000
      4 C4          31.6390  36.1562  37.0875 C.3            1 <1>                0.0000
      5 C5          31.7669  37.5893  36.5673 C.3            1 <1>                0.0000
      6 S6          30.1289  38.2099  36.0955 S.o2           1 <1>                0.0000
      7 O7          30.0890  38.5056  34.7062 O.2            1 <1>                0.0000
      8 O8          29.1069  37.4369  36.7098 O.2            1 <1>                0.0000
      9 Cl9         29.9961  40.0147  36.9930 Cl             1 <1>                0.0000
     10 C10         32.9389  35.6029  37.6949 C.3            1 <1>                0.0000
     11 H11         32.4967  35.0127  39.7821 H              1 <1>                0.0000
     12 H12         30.0017  35.7131  38.5083 H              1 <1>                0.0000
     13 H13         31.1813  36.9639  39.0959 H              1 <1>                0.0000
     14 H14         31.1716  35.4846  36.3673 H              1 <1>                0.0000
     15 H15         32.1845  38.2238  37.3491 H              1 <1>                0.0000
     16 H16         32.4247  37.6030  35.6982 H              1 <1>                0.0000
     17 H17         33.6077  36.3761  38.0732 H              1 <1>                0.0000
     18 H18         33.4454  34.8788  37.0569 H              1 <1>                0.0000
@<TRIPOS>BOND
    1    1    2 1     
    2    2    3 1     
    3    2   10 1     
    4    2   11 1     
    5    3    4 1     
    6    3   12 1     
    7    3   13 1     
    8    4    5 1     
    9    4   10 1     
   10    4   14 1     
   11    5    6 1     
   12    5   15 1     
   13    5   16 1     
   14    6    7 2     
   15    6    8 2     
   16    6    9 1     
   17   10   17 1     
   18   10   18 1     
@<TRIPOS>SUBSTRUCTURE
      1 ****           1
@<TRIPOS>COMMENT
> <Gold.Version>
2022.2.0

> <Gold.Id.Protein>
1qkm|1qkm_protein|mol2

> <Gold.Protein.RotatedTorsions>
[  496  491  490  487 ] final   20.16 input  -89.99 | X-H torsion

> <Gold.Protein.ActiveResidues>
 MET295  LEU298  THR299  LEU301  ALA302  GLU305  TRP335  MET336  LEU339  MET340 
 GLY342  LEU343  ARG346  PHE356  ILE373  ILE376  PHE377  LEU380  LYS471  GLY472 
 MET473  HIS475  LEU476  LEU477  ASN478  MET479  VAL484  VAL487 

> <Gold.Protein.RotatedAtoms>
   36.3030   33.9094   42.3570 H   0  0  0  0  0  0  0  0  0  0  0  0  # atno 496  bound_to 491 

> <Gold.Score>
     Score     S(PLP)   S(hbond)     S(cho)   S(metal)  DE(clash)   DE(tors)     intcor
     30.12     -30.37       0.00       0.00       0.00       0.00       0.26       0.26

> <Gold.PLP.Fitness>
30.1194

> <Gold.PLP.PLP>
-30.3743

> <Gold.PLP.part.hbond>
0.0000

> <Gold.PLP.part.metal>
0.0000

> <Gold.PLP.part.buried>
-1.5161

> <Gold.PLP.part.nonpolar>
-28.7647

> <Gold.PLP.part.repulsive>
0.0151

> <Gold.PLP.ligand.clash>
0.0000

> <Gold.PLP.ligand.torsion>
0.2583

> <Gold.PLP.Chemscore.Hbond>
0.0000

> <Gold.PLP.Chemscore.CHOScore>
0.0000

> <Gold.PLP.Chemscore.Metal>
0.0000

> <Gold.PLP.Chemscore.Internal.Correction>
0.2616

