#       Name:                EN300-1425531_i002
#       Creating user name   aseyller
#       Creation time:       Fri Apr 21 18:21:55 2023


#       File generated by GOLD software.
#

@<TRIPOS>MOLECULE
EN300-1425531_i002|Sulfonylchlorides|mol2|525|dock12
    18    18     1
SMALL
USER_CHARGES


@<TRIPOS>ATOM
      1 F1          29.1150  36.9826  41.2423 F              1 <1>                0.0000
      2 C2          28.7218  36.2594  40.1111 C.3            1 <1>                0.0000
      3 C3          29.8732  35.4926  39.4394 C.3            1 <1>                0.0000
      4 C4          30.1270  36.7602  38.6065 C.3            1 <1>                0.0000
      5 C5          30.4733  36.4736  37.1441 C.3            1 <1>                0.0000
      6 S6          32.1413  35.7673  37.0449 S.o2           1 <1>                0.0000
      7 O7          32.4851  35.4887  35.6945 O.2            1 <1>                0.0000
      8 O8          33.0329  36.4724  37.8975 O.2            1 <1>                0.0000
      9 Cl9         31.9690  33.9458  37.9010 Cl             1 <1>                0.0000
     10 C10         28.6465  37.1098  38.8319 C.3            1 <1>                0.0000
     11 H11         27.8347  35.6506  40.2851 H              1 <1>                0.0000
     12 H12         30.6890  35.2463  40.1192 H              1 <1>                0.0000
     13 H13         29.5426  34.6398  38.8467 H              1 <1>                0.0000
     14 H14         30.8186  37.4599  39.0760 H              1 <1>                0.0000
     15 H15         29.7539  35.7658  36.7323 H              1 <1>                0.0000
     16 H16         30.4373  37.4017  36.5736 H              1 <1>                0.0000
     17 H17         27.9805  36.6989  38.0731 H              1 <1>                0.0000
     18 H18         28.4718  38.1688  39.0214 H              1 <1>                0.0000
@<TRIPOS>BOND
    1    1    2 1     
    2    2    3 1     
    3    2   10 1     
    4    2   11 1     
    5    3    4 1     
    6    3   12 1     
    7    3   13 1     
    8    4    5 1     
    9    4   10 1     
   10    4   14 1     
   11    5    6 1     
   12    5   15 1     
   13    5   16 1     
   14    6    7 2     
   15    6    8 2     
   16    6    9 1     
   17   10   17 1     
   18   10   18 1     
@<TRIPOS>SUBSTRUCTURE
      1 ****           1
@<TRIPOS>COMMENT
> <Gold.Version>
2022.2.0

> <Gold.Id.Protein>
1qkm|1qkm_protein|mol2

> <Gold.Protein.RotatedTorsions>
[  496  491  490  487 ] final  -84.04 input  -89.99 | X-H torsion

> <Gold.Protein.ActiveResidues>
 MET295  LEU298  THR299  LEU301  ALA302  GLU305  TRP335  MET336  LEU339  MET340 
 GLY342  LEU343  ARG346  PHE356  ILE373  ILE376  PHE377  LEU380  LYS471  GLY472 
 MET473  HIS475  LEU476  LEU477  ASN478  MET479  VAL484  VAL487 

> <Gold.Protein.RotatedAtoms>
   36.7026   34.6879   41.1528 H   0  0  0  0  0  0  0  0  0  0  0  0  # atno 496  bound_to 491 

> <Gold.Score>
     Score     S(PLP)   S(hbond)     S(cho)   S(metal)  DE(clash)   DE(tors)     intcor
     31.92     -32.07       0.00       0.00       0.00       0.00       0.20       0.26

> <Gold.PLP.Fitness>
31.9202

> <Gold.PLP.PLP>
-32.0684

> <Gold.PLP.part.hbond>
0.0000

> <Gold.PLP.part.metal>
0.0000

> <Gold.PLP.part.buried>
-2.2056

> <Gold.PLP.part.nonpolar>
-29.9346

> <Gold.PLP.part.repulsive>
0.0971

> <Gold.PLP.ligand.clash>
0.0000

> <Gold.PLP.ligand.torsion>
0.2049

> <Gold.PLP.Chemscore.Hbond>
0.0000

> <Gold.PLP.Chemscore.CHOScore>
0.0000

> <Gold.PLP.Chemscore.Metal>
0.0000

> <Gold.PLP.Chemscore.Internal.Correction>
0.2616

