#       Name:                EN300-1425531_i002
#       Creating user name   aseyller
#       Creation time:       Fri Apr 21 18:21:56 2023


#       File generated by GOLD software.
#

@<TRIPOS>MOLECULE
EN300-1425531_i002|Sulfonylchlorides|mol2|525|dock15
    18    18     1
SMALL
USER_CHARGES


@<TRIPOS>ATOM
      1 F1          32.2277  35.6468  38.0668 F              1 <1>                0.0000
      2 C2          30.8398  35.7154  37.9050 C.3            1 <1>                0.0000
      3 C3          30.2454  37.0886  38.2599 C.3            1 <1>                0.0000
      4 C4          30.1053  36.5681  39.7001 C.3            1 <1>                0.0000
      5 C5          28.8037  36.9943  40.3820 C.3            1 <1>                0.0000
      6 S6          27.3996  36.6073  39.3007 S.o2           1 <1>                0.0000
      7 O7          27.3498  37.5114  38.2055 O.2            1 <1>                0.0000
      8 O8          27.2982  35.2045  39.0979 O.2            1 <1>                0.0000
      9 Cl9         25.7716  37.0703  40.4033 Cl             1 <1>                0.0000
     10 C10         30.0518  35.1532  39.1001 C.3            1 <1>                0.0000
     11 H11         30.5065  35.3312  36.9409 H              1 <1>                0.0000
     12 H12         30.9545  37.9104  38.1597 H              1 <1>                0.0000
     13 H13         29.2909  37.2900  37.7737 H              1 <1>                0.0000
     14 H14         30.9855  36.7490  40.3173 H              1 <1>                0.0000
     15 H15         28.6949  36.4580  41.3248 H              1 <1>                0.0000
     16 H16         28.8289  38.0668  40.5749 H              1 <1>                0.0000
     17 H17         29.0443  34.8255  38.8435 H              1 <1>                0.0000
     18 H18         30.6046  34.4126  39.6780 H              1 <1>                0.0000
@<TRIPOS>BOND
    1    1    2 1     
    2    2    3 1     
    3    2   10 1     
    4    2   11 1     
    5    3    4 1     
    6    3   12 1     
    7    3   13 1     
    8    4    5 1     
    9    4   10 1     
   10    4   14 1     
   11    5    6 1     
   12    5   15 1     
   13    5   16 1     
   14    6    7 2     
   15    6    8 2     
   16    6    9 1     
   17   10   17 1     
   18   10   18 1     
@<TRIPOS>SUBSTRUCTURE
      1 ****           1
@<TRIPOS>COMMENT
> <Gold.Version>
2022.2.0

> <Gold.Id.Protein>
1qkm|1qkm_protein|mol2

> <Gold.Protein.RotatedTorsions>
[  496  491  490  487 ] final  -83.20 input  -89.99 | X-H torsion

> <Gold.Protein.ActiveResidues>
 MET295  LEU298  THR299  LEU301  ALA302  GLU305  TRP335  MET336  LEU339  MET340 
 GLY342  LEU343  ARG346  PHE356  ILE373  ILE376  PHE377  LEU380  LYS471  GLY472 
 MET473  HIS475  LEU476  LEU477  ASN478  MET479  VAL484  VAL487 

> <Gold.Protein.RotatedAtoms>
   36.6949   34.6921   41.1635 H   0  0  0  0  0  0  0  0  0  0  0  0  # atno 496  bound_to 491 

> <Gold.Score>
     Score     S(PLP)   S(hbond)     S(cho)   S(metal)  DE(clash)   DE(tors)     intcor
     31.38     -31.44       0.00       0.00       0.00       0.00       0.16       0.26

> <Gold.PLP.Fitness>
31.3797

> <Gold.PLP.PLP>
-31.4395

> <Gold.PLP.part.hbond>
0.0000

> <Gold.PLP.part.metal>
0.0000

> <Gold.PLP.part.buried>
-2.8318

> <Gold.PLP.part.nonpolar>
-28.5281

> <Gold.PLP.part.repulsive>
0.0082

> <Gold.PLP.ligand.clash>
0.0000

> <Gold.PLP.ligand.torsion>
0.1607

> <Gold.PLP.Chemscore.Hbond>
0.0000

> <Gold.PLP.Chemscore.CHOScore>
0.0000

> <Gold.PLP.Chemscore.Metal>
0.0000

> <Gold.PLP.Chemscore.Internal.Correction>
0.2616

