#       Name:                EN300-1425531_i002
#       Creating user name   aseyller
#       Creation time:       Fri Apr 21 18:21:58 2023


#       File generated by GOLD software.
#

@<TRIPOS>MOLECULE
EN300-1425531_i002|Sulfonylchlorides|mol2|525|dock20
    18    18     1
SMALL
USER_CHARGES


@<TRIPOS>ATOM
      1 F1          29.2946  36.9909  40.7805 F              1 <1>                0.0000
      2 C2          29.3668  36.0788  39.7222 C.3            1 <1>                0.0000
      3 C3          30.5248  36.3551  38.7488 C.3            1 <1>                0.0000
      4 C4          29.5530  37.2598  37.9730 C.3            1 <1>                0.0000
      5 C5          29.6863  37.1419  36.4535 C.3            1 <1>                0.0000
      6 S6          31.0797  38.1565  35.8881 S.o2           1 <1>                0.0000
      7 O7          32.2435  37.8761  36.6536 O.2            1 <1>                0.0000
      8 O8          31.1274  38.1912  34.4683 O.2            1 <1>                0.0000
      9 Cl9         30.5781  40.0407  36.4160 Cl             1 <1>                0.0000
     10 C10         28.4153  36.4077  38.5597 C.3            1 <1>                0.0000
     11 H11         29.3123  35.0416  40.0528 H              1 <1>                0.0000
     12 H12         31.3566  36.8948  39.2017 H              1 <1>                0.0000
     13 H13         30.8440  35.4759  38.1892 H              1 <1>                0.0000
     14 H14         29.5487  38.2937  38.3186 H              1 <1>                0.0000
     15 H15         29.8622  36.1004  36.1839 H              1 <1>                0.0000
     16 H16         28.7680  37.4895  35.9802 H              1 <1>                0.0000
     17 H17         28.1576  35.5428  37.9483 H              1 <1>                0.0000
     18 H18         27.5439  36.9896  38.8600 H              1 <1>                0.0000
@<TRIPOS>BOND
    1    1    2 1     
    2    2    3 1     
    3    2   10 1     
    4    2   11 1     
    5    3    4 1     
    6    3   12 1     
    7    3   13 1     
    8    4    5 1     
    9    4   10 1     
   10    4   14 1     
   11    5    6 1     
   12    5   15 1     
   13    5   16 1     
   14    6    7 2     
   15    6    8 2     
   16    6    9 1     
   17   10   17 1     
   18   10   18 1     
@<TRIPOS>SUBSTRUCTURE
      1 ****           1
@<TRIPOS>COMMENT
> <Gold.Version>
2022.2.0

> <Gold.Id.Protein>
1qkm|1qkm_protein|mol2

> <Gold.Protein.RotatedTorsions>
[  496  491  490  487 ] final -108.19 input  -89.99 | X-H torsion

> <Gold.Protein.ActiveResidues>
 MET295  LEU298  THR299  LEU301  ALA302  GLU305  TRP335  MET336  LEU339  MET340 
 GLY342  LEU343  ARG346  PHE356  ILE373  ILE376  PHE377  LEU380  LYS471  GLY472 
 MET473  HIS475  LEU476  LEU477  ASN478  MET479  VAL484  VAL487 

> <Gold.Protein.RotatedAtoms>
   36.9240   34.4952   40.8893 H   0  0  0  0  0  0  0  0  0  0  0  0  # atno 496  bound_to 491 

> <Gold.Score>
     Score     S(PLP)   S(hbond)     S(cho)   S(metal)  DE(clash)   DE(tors)     intcor
     29.84     -29.93       0.00       0.00       0.00       0.00       0.17       0.26

> <Gold.PLP.Fitness>
29.8446

> <Gold.PLP.PLP>
-29.9325

> <Gold.PLP.part.hbond>
0.0000

> <Gold.PLP.part.metal>
0.0000

> <Gold.PLP.part.buried>
-2.1750

> <Gold.PLP.part.nonpolar>
-28.0787

> <Gold.PLP.part.repulsive>
0.0695

> <Gold.PLP.ligand.clash>
0.0000

> <Gold.PLP.ligand.torsion>
0.1748

> <Gold.PLP.Chemscore.Hbond>
0.0000

> <Gold.PLP.Chemscore.CHOScore>
0.0000

> <Gold.PLP.Chemscore.Metal>
0.0000

> <Gold.PLP.Chemscore.Internal.Correction>
0.2616

