#       Name:                EN300-1425531_i002
#       Creating user name   aseyller
#       Creation time:       Fri Apr 21 18:21:50 2023


#       File generated by GOLD software.
#

@<TRIPOS>MOLECULE
EN300-1425531_i002|Sulfonylchlorides|mol2|525|dock1
    18    18     1
SMALL
USER_CHARGES


@<TRIPOS>ATOM
      1 F1          28.8008  36.5328  41.2439 F              1 <1>                0.0000
      2 C2          28.6689  35.8316  40.0405 C.3            1 <1>                0.0000
      3 C3          30.0136  35.4489  39.4001 C.3            1 <1>                0.0000
      4 C4          29.9657  36.8052  38.6769 C.3            1 <1>                0.0000
      5 C5          30.4477  36.7436  37.2262 C.3            1 <1>                0.0000
      6 S6          32.1285  36.0629  37.1758 S.o2           1 <1>                0.0000
      7 O7          33.0265  36.8987  37.8928 O.2            1 <1>                0.0000
      8 O8          32.1043  34.6585  37.3910 O.2            1 <1>                0.0000
      9 Cl9         32.6952  36.2618  35.2471 Cl             1 <1>                0.0000
     10 C10         28.4361  36.7393  38.8211 C.3            1 <1>                0.0000
     11 H11         27.9660  35.0014  40.1092 H              1 <1>                0.0000
     12 H12         30.8305  35.3650  40.1170 H              1 <1>                0.0000
     13 H13         29.9493  34.5932  38.7281 H              1 <1>                0.0000
     14 H14         30.4242  37.6173  39.2411 H              1 <1>                0.0000
     15 H15         29.7797  36.1051  36.6480 H              1 <1>                0.0000
     16 H16         30.4493  37.7472  36.8009 H              1 <1>                0.0000
     17 H17         27.9405  36.2363  37.9907 H              1 <1>                0.0000
     18 H18         27.9793  37.6970  39.0706 H              1 <1>                0.0000
@<TRIPOS>BOND
    1    1    2 1     
    2    2    3 1     
    3    2   10 1     
    4    2   11 1     
    5    3    4 1     
    6    3   12 1     
    7    3   13 1     
    8    4    5 1     
    9    4   10 1     
   10    4   14 1     
   11    5    6 1     
   12    5   15 1     
   13    5   16 1     
   14    6    7 2     
   15    6    8 2     
   16    6    9 1     
   17   10   17 1     
   18   10   18 1     
@<TRIPOS>SUBSTRUCTURE
      1 ****           1
@<TRIPOS>COMMENT
> <Gold.Version>
2022.2.0

> <Gold.Id.Protein>
1qkm|1qkm_protein|mol2

> <Gold.Protein.RotatedTorsions>
[  496  491  490  487 ] final   54.27 input  -89.99 | X-H torsion

> <Gold.Protein.ActiveResidues>
 MET295  LEU298  THR299  LEU301  ALA302  GLU305  TRP335  MET336  LEU339  MET340 
 GLY342  LEU343  ARG346  PHE356  ILE373  ILE376  PHE377  LEU380  LYS471  GLY472 
 MET473  HIS475  LEU476  LEU477  ASN478  MET479  VAL484  VAL487 

> <Gold.Protein.RotatedAtoms>
   36.5054   33.3950   42.3349 H   0  0  0  0  0  0  0  0  0  0  0  0  # atno 496  bound_to 491 

> <Gold.Score>
     Score     S(PLP)   S(hbond)     S(cho)   S(metal)  DE(clash)   DE(tors)     intcor
     31.08     -31.36       0.00       0.00       0.00       0.00       0.27       0.26

> <Gold.PLP.Fitness>
31.0776

> <Gold.PLP.PLP>
-31.3596

> <Gold.PLP.part.hbond>
0.0000

> <Gold.PLP.part.metal>
0.0000

> <Gold.PLP.part.buried>
-1.0140

> <Gold.PLP.part.nonpolar>
-30.1833

> <Gold.PLP.part.repulsive>
0.0363

> <Gold.PLP.ligand.clash>
0.0000

> <Gold.PLP.ligand.torsion>
0.2720

> <Gold.PLP.Chemscore.Hbond>
0.0000

> <Gold.PLP.Chemscore.CHOScore>
0.0000

> <Gold.PLP.Chemscore.Metal>
0.0000

> <Gold.PLP.Chemscore.Internal.Correction>
0.2621

