#       Name:                EN300-1425531_i002
#       Creating user name   aseyller
#       Creation time:       Fri Apr 21 18:21:53 2023


#       File generated by GOLD software.
#

@<TRIPOS>MOLECULE
EN300-1425531_i002|Sulfonylchlorides|mol2|525|dock9
    18    18     1
SMALL
USER_CHARGES


@<TRIPOS>ATOM
      1 F1          32.5770  34.8983  36.7749 F              1 <1>                0.0000
      2 C2          32.4935  35.7879  37.8515 C.3            1 <1>                0.0000
      3 C3          31.3256  35.4907  38.8069 C.3            1 <1>                0.0000
      4 C4          30.4675  36.4045  37.9162 C.3            1 <1>                0.0000
      5 C5          29.5108  37.3034  38.7019 C.3            1 <1>                0.0000
      6 S6          28.3438  36.2748  39.6353 S.o2           1 <1>                0.0000
      7 O7          28.4923  34.9065  39.2818 O.2            1 <1>                0.0000
      8 O8          28.3010  36.6794  40.9968 O.2            1 <1>                0.0000
      9 Cl9         26.5296  36.7834  38.9070 Cl             1 <1>                0.0000
     10 C10         31.7751  37.1038  37.5089 C.3            1 <1>                0.0000
     11 H11         33.4477  35.9291  38.3590 H              1 <1>                0.0000
     12 H12         31.0079  34.4480  38.7970 H              1 <1>                0.0000
     13 H13         31.4760  35.8790  39.8142 H              1 <1>                0.0000
     14 H14         29.9776  35.8797  37.0959 H              1 <1>                0.0000
     15 H15         30.0807  37.9246  39.3930 H              1 <1>                0.0000
     16 H16         28.9603  37.9408  38.0100 H              1 <1>                0.0000
     17 H17         32.0484  37.9331  38.1614 H              1 <1>                0.0000
     18 H18         31.8205  37.3634  36.4512 H              1 <1>                0.0000
@<TRIPOS>BOND
    1    1    2 1     
    2    2    3 1     
    3    2   10 1     
    4    2   11 1     
    5    3    4 1     
    6    3   12 1     
    7    3   13 1     
    8    4    5 1     
    9    4   10 1     
   10    4   14 1     
   11    5    6 1     
   12    5   15 1     
   13    5   16 1     
   14    6    7 2     
   15    6    8 2     
   16    6    9 1     
   17   10   17 1     
   18   10   18 1     
@<TRIPOS>SUBSTRUCTURE
      1 ****           1
@<TRIPOS>COMMENT
> <Gold.Version>
2022.2.0

> <Gold.Id.Protein>
1qkm|1qkm_protein|mol2

> <Gold.Protein.RotatedTorsions>
[  496  491  490  487 ] final  -25.99 input  -89.99 | X-H torsion

> <Gold.Protein.ActiveResidues>
 MET295  LEU298  THR299  LEU301  ALA302  GLU305  TRP335  MET336  LEU339  MET340 
 GLY342  LEU343  ARG346  PHE356  ILE373  ILE376  PHE377  LEU380  LYS471  GLY472 
 MET473  HIS475  LEU476  LEU477  ASN478  MET479  VAL484  VAL487 

> <Gold.Protein.RotatedAtoms>
   36.2994   34.5330   41.9598 H   0  0  0  0  0  0  0  0  0  0  0  0  # atno 496  bound_to 491 

> <Gold.Score>
     Score     S(PLP)   S(hbond)     S(cho)   S(metal)  DE(clash)   DE(tors)     intcor
     31.84     -31.92       0.00       0.00       0.00       0.00       0.17       0.26

> <Gold.PLP.Fitness>
31.8416

> <Gold.PLP.PLP>
-31.9187

> <Gold.PLP.part.hbond>
0.0000

> <Gold.PLP.part.metal>
0.0000

> <Gold.PLP.part.buried>
-2.6059

> <Gold.PLP.part.nonpolar>
-29.7171

> <Gold.PLP.part.repulsive>
0.1275

> <Gold.PLP.ligand.clash>
0.0000

> <Gold.PLP.ligand.torsion>
0.1694

> <Gold.PLP.Chemscore.Hbond>
0.0000

> <Gold.PLP.Chemscore.CHOScore>
0.0000

> <Gold.PLP.Chemscore.Metal>
0.0000

> <Gold.PLP.Chemscore.Internal.Correction>
0.2616

