#       Name:                EN300-1425531_i002
#       Creating user name   aseyller
#       Creation time:       Fri Apr 21 18:21:51 2023


#       File generated by GOLD software.
#

@<TRIPOS>MOLECULE
EN300-1425531_i002|Sulfonylchlorides|mol2|525|dock2
    18    18     1
SMALL
USER_CHARGES


@<TRIPOS>ATOM
      1 F1          28.5121  36.4191  41.5726 F              1 <1>                0.0000
      2 C2          28.6815  35.7062  40.3809 C.3            1 <1>                0.0000
      3 C3          29.7547  36.3014  39.4542 C.3            1 <1>                0.0000
      4 C4          28.6371  37.1625  38.8426 C.3            1 <1>                0.0000
      5 C5          28.7365  37.3066  37.3228 C.3            1 <1>                0.0000
      6 S6          30.2115  38.2753  36.9023 S.o2           1 <1>                0.0000
      7 O7          30.0068  39.6496  37.1998 O.2            1 <1>                0.0000
      8 O8          31.3883  37.6012  37.3264 O.2            1 <1>                0.0000
      9 Cl9         30.2993  38.2099  34.8852 Cl             1 <1>                0.0000
     10 C10         27.6548  36.0691  39.2949 C.3            1 <1>                0.0000
     11 H11         28.7889  34.6334  40.5410 H              1 <1>                0.0000
     12 H12         30.5136  36.8804  39.9805 H              1 <1>                0.0000
     13 H13         30.1797  35.5786  38.7578 H              1 <1>                0.0000
     14 H14         28.4940  38.1167  39.3498 H              1 <1>                0.0000
     15 H15         28.8089  36.3186  36.8680 H              1 <1>                0.0000
     16 H16         27.8486  37.8152  36.9472 H              1 <1>                0.0000
     17 H17         27.5058  35.2828  38.5548 H              1 <1>                0.0000
     18 H18         26.7185  36.4605  39.6925 H              1 <1>                0.0000
@<TRIPOS>BOND
    1    1    2 1     
    2    2    3 1     
    3    2   10 1     
    4    2   11 1     
    5    3    4 1     
    6    3   12 1     
    7    3   13 1     
    8    4    5 1     
    9    4   10 1     
   10    4   14 1     
   11    5    6 1     
   12    5   15 1     
   13    5   16 1     
   14    6    7 2     
   15    6    8 2     
   16    6    9 1     
   17   10   17 1     
   18   10   18 1     
@<TRIPOS>SUBSTRUCTURE
      1 ****           1
@<TRIPOS>COMMENT
> <Gold.Version>
2022.2.0

> <Gold.Id.Protein>
1qkm|1qkm_protein|mol2

> <Gold.Protein.RotatedTorsions>
[  496  491  490  487 ] final -136.37 input  -89.99 | X-H torsion

> <Gold.Protein.ActiveResidues>
 MET295  LEU298  THR299  LEU301  ALA302  GLU305  TRP335  MET336  LEU339  MET340 
 GLY342  LEU343  ARG346  PHE356  ILE373  ILE376  PHE377  LEU380  LYS471  GLY472 
 MET473  HIS475  LEU476  LEU477  ASN478  MET479  VAL484  VAL487 

> <Gold.Protein.RotatedAtoms>
   37.1500   34.1283   40.7304 H   0  0  0  0  0  0  0  0  0  0  0  0  # atno 496  bound_to 491 

> <Gold.Score>
     Score     S(PLP)   S(hbond)     S(cho)   S(metal)  DE(clash)   DE(tors)     intcor
     31.85     -31.94       0.00       0.00       0.00       0.00       0.17       0.26

> <Gold.PLP.Fitness>
31.8503

> <Gold.PLP.PLP>
-31.9364

> <Gold.PLP.part.hbond>
0.0000

> <Gold.PLP.part.metal>
0.0000

> <Gold.PLP.part.buried>
-2.6198

> <Gold.PLP.part.nonpolar>
-29.8141

> <Gold.PLP.part.repulsive>
0.0000

> <Gold.PLP.ligand.clash>
0.0000

> <Gold.PLP.ligand.torsion>
0.1740

> <Gold.PLP.Chemscore.Hbond>
0.0000

> <Gold.PLP.Chemscore.CHOScore>
0.0000

> <Gold.PLP.Chemscore.Metal>
0.0000

> <Gold.PLP.Chemscore.Internal.Correction>
0.2619

