#       Name:                EN300-1425531_i002
#       Creating user name   aseyller
#       Creation time:       Fri Apr 21 18:21:53 2023


#       File generated by GOLD software.
#

@<TRIPOS>MOLECULE
EN300-1425531_i002|Sulfonylchlorides|mol2|525|dock7
    18    18     1
SMALL
USER_CHARGES


@<TRIPOS>ATOM
      1 F1          31.5817  33.1614  38.0509 F              1 <1>                0.0000
      2 C2          31.7780  34.3003  38.8393 C.3            1 <1>                0.0000
      3 C3          30.4891  35.0967  39.1028 C.3            1 <1>                0.0000
      4 C4          30.7975  35.8723  37.8113 C.3            1 <1>                0.0000
      5 C5          30.5009  37.3699  37.9101 C.3            1 <1>                0.0000
      6 S6          31.0127  38.1903  36.3752 S.o2           1 <1>                0.0000
      7 O7          32.4297  38.2644  36.2981 O.2            1 <1>                0.0000
      8 O8          30.2428  37.7196  35.2776 O.2            1 <1>                0.0000
      9 Cl9         30.4256  40.1089  36.6093 Cl             1 <1>                0.0000
     10 C10         32.2759  35.5202  38.0460 C.3            1 <1>                0.0000
     11 H11         32.3576  34.0971  39.7397 H              1 <1>                0.0000
     12 H12         29.5832  34.4932  39.0440 H              1 <1>                0.0000
     13 H13         30.5318  35.7113  40.0020 H              1 <1>                0.0000
     14 H14         30.3752  35.4153  36.9162 H              1 <1>                0.0000
     15 H15         29.4320  37.5194  38.0630 H              1 <1>                0.0000
     16 H16         31.0509  37.7946  38.7499 H              1 <1>                0.0000
     17 H17         32.8071  36.2506  38.6563 H              1 <1>                0.0000
     18 H18         32.8126  35.2585  37.1341 H              1 <1>                0.0000
@<TRIPOS>BOND
    1    1    2 1     
    2    2    3 1     
    3    2   10 1     
    4    2   11 1     
    5    3    4 1     
    6    3   12 1     
    7    3   13 1     
    8    4    5 1     
    9    4   10 1     
   10    4   14 1     
   11    5    6 1     
   12    5   15 1     
   13    5   16 1     
   14    6    7 2     
   15    6    8 2     
   16    6    9 1     
   17   10   17 1     
   18   10   18 1     
@<TRIPOS>SUBSTRUCTURE
      1 ****           1
@<TRIPOS>COMMENT
> <Gold.Version>
2022.2.0

> <Gold.Id.Protein>
1qkm|1qkm_protein|mol2

> <Gold.Protein.RotatedTorsions>
[  496  491  490  487 ] final   83.46 input  -89.99 | X-H torsion

> <Gold.Protein.ActiveResidues>
 MET295  LEU298  THR299  LEU301  ALA302  GLU305  TRP335  MET336  LEU339  MET340 
 GLY342  LEU343  ARG346  PHE356  ILE373  ILE376  PHE377  LEU380  LYS471  GLY472 
 MET473  HIS475  LEU476  LEU477  ASN478  MET479  VAL484  VAL487 

> <Gold.Protein.RotatedAtoms>
   36.7598   33.0701   42.0991 H   0  0  0  0  0  0  0  0  0  0  0  0  # atno 496  bound_to 491 

> <Gold.Score>
     Score     S(PLP)   S(hbond)     S(cho)   S(metal)  DE(clash)   DE(tors)     intcor
     32.56     -32.65       0.00       0.00       0.00       0.00       0.18       0.26

> <Gold.PLP.Fitness>
32.5636

> <Gold.PLP.PLP>
-32.6525

> <Gold.PLP.part.hbond>
0.0000

> <Gold.PLP.part.metal>
0.0000

> <Gold.PLP.part.buried>
-1.7639

> <Gold.PLP.part.nonpolar>
-31.8732

> <Gold.PLP.part.repulsive>
0.0417

> <Gold.PLP.ligand.clash>
0.0000

> <Gold.PLP.ligand.torsion>
0.1753

> <Gold.PLP.Chemscore.Hbond>
0.0000

> <Gold.PLP.Chemscore.CHOScore>
0.0000

> <Gold.PLP.Chemscore.Metal>
0.0000

> <Gold.PLP.Chemscore.Internal.Correction>
0.2616

