#       Name:                EN300-1425531_i002
#       Creating user name   aseyller
#       Creation time:       Fri Apr 21 18:21:56 2023


#       File generated by GOLD software.
#

@<TRIPOS>MOLECULE
EN300-1425531_i002|Sulfonylchlorides|mol2|525|dock16
    18    18     1
SMALL
USER_CHARGES


@<TRIPOS>ATOM
      1 F1          32.6798  35.8700  35.6464 F              1 <1>                0.0000
      2 C2          32.7003  36.6640  36.7980 C.3            1 <1>                0.0000
      3 C3          31.8274  36.1162  37.9395 C.3            1 <1>                0.0000
      4 C4          30.6681  36.9270  37.3367 C.3            1 <1>                0.0000
      5 C5          29.7818  37.6019  38.3853 C.3            1 <1>                0.0000
      6 S6          29.0169  36.3361  39.4358 S.o2           1 <1>                0.0000
      7 O7          29.3912  35.0356  39.0023 O.2            1 <1>                0.0000
      8 O8          29.1043  36.7053  40.8053 O.2            1 <1>                0.0000
      9 Cl9         27.0452  36.4540  39.0128 Cl             1 <1>                0.0000
     10 C10         31.7348  37.8596  36.7391 C.3            1 <1>                0.0000
     11 H11         33.7099  36.9313  37.1100 H              1 <1>                0.0000
     12 H12         31.6759  35.0377  37.8943 H              1 <1>                0.0000
     13 H13         32.1338  36.4606  38.9272 H              1 <1>                0.0000
     14 H14         30.0957  36.3796  36.5876 H              1 <1>                0.0000
     15 H15         30.3884  38.2666  39.0004 H              1 <1>                0.0000
     16 H16         29.0032  38.1787  37.8861 H              1 <1>                0.0000
     17 H17         32.0159  38.6807  37.3987 H              1 <1>                0.0000
     18 H18         31.5086  38.1886  35.7249 H              1 <1>                0.0000
@<TRIPOS>BOND
    1    1    2 1     
    2    2    3 1     
    3    2   10 1     
    4    2   11 1     
    5    3    4 1     
    6    3   12 1     
    7    3   13 1     
    8    4    5 1     
    9    4   10 1     
   10    4   14 1     
   11    5    6 1     
   12    5   15 1     
   13    5   16 1     
   14    6    7 2     
   15    6    8 2     
   16    6    9 1     
   17   10   17 1     
   18   10   18 1     
@<TRIPOS>SUBSTRUCTURE
      1 ****           1
@<TRIPOS>COMMENT
> <Gold.Version>
2022.2.0

> <Gold.Id.Protein>
1qkm|1qkm_protein|mol2

> <Gold.Protein.RotatedTorsions>
[  496  491  490  487 ] final  -86.89 input  -89.99 | X-H torsion

> <Gold.Protein.ActiveResidues>
 MET295  LEU298  THR299  LEU301  ALA302  GLU305  TRP335  MET336  LEU339  MET340 
 GLY342  LEU343  ARG346  PHE356  ILE373  ILE376  PHE377  LEU380  LYS471  GLY472 
 MET473  HIS475  LEU476  LEU477  ASN478  MET479  VAL484  VAL487 

> <Gold.Protein.RotatedAtoms>
   36.7287   34.6725   41.1171 H   0  0  0  0  0  0  0  0  0  0  0  0  # atno 496  bound_to 491 

> <Gold.Score>
     Score     S(PLP)   S(hbond)     S(cho)   S(metal)  DE(clash)   DE(tors)     intcor
     29.88     -30.05       0.00       0.00       0.00       0.00       0.22       0.26

> <Gold.PLP.Fitness>
29.8772

> <Gold.PLP.PLP>
-30.0460

> <Gold.PLP.part.hbond>
0.0000

> <Gold.PLP.part.metal>
0.0000

> <Gold.PLP.part.buried>
-2.9764

> <Gold.PLP.part.nonpolar>
-27.2615

> <Gold.PLP.part.repulsive>
0.1514

> <Gold.PLP.ligand.clash>
0.0000

> <Gold.PLP.ligand.torsion>
0.2152

> <Gold.PLP.Chemscore.Hbond>
0.0000

> <Gold.PLP.Chemscore.CHOScore>
0.0000

> <Gold.PLP.Chemscore.Metal>
0.0000

> <Gold.PLP.Chemscore.Internal.Correction>
0.2616

