#       Name:                EN300-1425531_i002
#       Creating user name   aseyller
#       Creation time:       Fri Apr 21 18:21:52 2023


#       File generated by GOLD software.
#

@<TRIPOS>MOLECULE
EN300-1425531_i002|Sulfonylchlorides|mol2|525|dock6
    18    18     1
SMALL
USER_CHARGES


@<TRIPOS>ATOM
      1 F1          25.9200  37.1897  41.5021 F              1 <1>                0.0000
      2 C2          26.2056  36.2379  40.5173 C.3            1 <1>                0.0000
      3 C3          27.6625  36.2774  40.0266 C.3            1 <1>                0.0000
      4 C4          27.1988  37.3018  38.9775 C.3            1 <1>                0.0000
      5 C5          27.8399  37.1040  37.6025 C.3            1 <1>                0.0000
      6 S6          29.5861  37.5904  37.6738 S.o2           1 <1>                0.0000
      7 O7          29.7102  39.0059  37.6606 O.2            1 <1>                0.0000
      8 O8          30.2846  36.8024  38.6280 O.2            1 <1>                0.0000
      9 Cl9         30.3447  37.0072  35.8948 Cl             1 <1>                0.0000
     10 C10         25.7993  36.6766  39.1004 C.3            1 <1>                0.0000
     11 H11         25.8610  35.2383  40.7820 H              1 <1>                0.0000
     12 H12         28.3588  36.6868  40.7585 H              1 <1>                0.0000
     13 H13         28.0040  35.3360  39.5964 H              1 <1>                0.0000
     14 H14         27.2492  38.3343  39.3235 H              1 <1>                0.0000
     15 H15         27.7663  36.0552  37.3147 H              1 <1>                0.0000
     16 H16         27.3210  37.7196  36.8678 H              1 <1>                0.0000
     17 H17         25.6313  35.8442  38.4170 H              1 <1>                0.0000
     18 H18         24.9913  37.4081  39.0847 H              1 <1>                0.0000
@<TRIPOS>BOND
    1    1    2 1     
    2    2    3 1     
    3    2   10 1     
    4    2   11 1     
    5    3    4 1     
    6    3   12 1     
    7    3   13 1     
    8    4    5 1     
    9    4   10 1     
   10    4   14 1     
   11    5    6 1     
   12    5   15 1     
   13    5   16 1     
   14    6    7 2     
   15    6    8 2     
   16    6    9 1     
   17   10   17 1     
   18   10   18 1     
@<TRIPOS>SUBSTRUCTURE
      1 ****           1
@<TRIPOS>COMMENT
> <Gold.Version>
2022.2.0

> <Gold.Id.Protein>
1qkm|1qkm_protein|mol2

> <Gold.Protein.RotatedTorsions>
[  496  491  490  487 ] final   25.43 input  -89.99 | X-H torsion

> <Gold.Protein.ActiveResidues>
 MET295  LEU298  THR299  LEU301  ALA302  GLU305  TRP335  MET336  LEU339  MET340 
 GLY342  LEU343  ARG346  PHE356  ILE373  ILE376  PHE377  LEU380  LYS471  GLY472 
 MET473  HIS475  LEU476  LEU477  ASN478  MET479  VAL484  VAL487 

> <Gold.Protein.RotatedAtoms>
   36.3245   33.8269   42.3726 H   0  0  0  0  0  0  0  0  0  0  0  0  # atno 496  bound_to 491 

> <Gold.Score>
     Score     S(PLP)   S(hbond)     S(cho)   S(metal)  DE(clash)   DE(tors)     intcor
     32.72     -32.88       0.00       0.00       0.00       0.00       0.21       0.26

> <Gold.PLP.Fitness>
32.7186

> <Gold.PLP.PLP>
-32.8770

> <Gold.PLP.part.hbond>
0.0000

> <Gold.PLP.part.metal>
0.0000

> <Gold.PLP.part.buried>
-2.6294

> <Gold.PLP.part.nonpolar>
-29.8077

> <Gold.PLP.part.repulsive>
0.0447

> <Gold.PLP.ligand.clash>
0.0000

> <Gold.PLP.ligand.torsion>
0.2100

> <Gold.PLP.Chemscore.Hbond>
0.0000

> <Gold.PLP.Chemscore.CHOScore>
0.0000

> <Gold.PLP.Chemscore.Metal>
0.0000

> <Gold.PLP.Chemscore.Internal.Correction>
0.2616

