#       Name:                EN300-1231025_i001
#       Creating user name   fsindt
#       Creation time:       Mon Feb 27 18:14:25 2023


#       File generated by GOLD software.
#

@<TRIPOS>MOLECULE
EN300-1231025_i001|acide_1|mol2|268|dock8
    16    15     1
SMALL
USER_CHARGES


@<TRIPOS>ATOM
      1 O1           1.0592 -11.3854   8.4899 O.3            1 <1>                0.0000
      2 C2          -0.0593 -12.0366   7.8843 C.3            1 <1>                0.0000
      3 C3          -1.2395 -12.0340   8.8579 C.3            1 <1>                0.0000
      4 C4          -1.4915 -10.6075   9.3502 C.3            1 <1>                0.0000
      5 C5          -2.8536 -10.5116   9.8999 C.1            1 <1>                0.0000
      6 C6          -3.9400 -10.4350  10.3383 C.1            1 <1>                0.0000
      7 C7           0.3097 -13.4580   7.5459 C.2            1 <1>                0.0000
      8 O8          -0.5520 -14.2427   7.1874 O.co2          1 <1>                0.0000
      9 O9           1.4698 -13.8234   7.6305 O.co2          1 <1>               -1.0000
     10 H10         -0.3386 -11.5071   6.9734 H              1 <1>                0.0000
     11 H11         -2.1298 -12.4059   8.3506 H              1 <1>                0.0000
     12 H12         -1.0106 -12.6767   9.7080 H              1 <1>                0.0000
     13 H13         -0.7681 -10.3579  10.1263 H              1 <1>                0.0000
     14 H14         -1.3858  -9.9118   8.5177 H              1 <1>                0.0000
     15 H15         -4.9116 -10.3666  10.7304 H              1 <1>                0.0000
     16 H16          1.1362 -10.4475   8.2674 H              1 <1>                0.0000
@<TRIPOS>BOND
    1    1    2 1     
    2    1   16 1     
    3    2    3 1     
    4    2    7 1     
    5    2   10 1     
    6    3    4 1     
    7    3   11 1     
    8    3   12 1     
    9    4    5 1     
   10    4   13 1     
   11    4   14 1     
   12    5    6 3     
   13    6   15 1     
   14    7    8 ar    
   15    7    9 ar    
@<TRIPOS>SUBSTRUCTURE
      1 ****           1
@<TRIPOS>SET
DONOR_HYDROGENS      STATIC     ATOMS    <user>   **** ""
1 16
ATOM$RED        STATIC     ATOMS    COLORGROUP SYSTEM
1 16
@<TRIPOS>COMMENT
> <Gold.Version>
2022.2.0

> <Gold.Id.Protein>
3pbl|protein|mol2

> <Gold.Protein.RotatedTorsions>
[ 1303 1298 1297 1294 ] final -146.52 input  179.99 | X-H torsion
[ 2461 2456 2455 2452 ] final  -24.73 input   30.03 | X-H torsion
[ 2515 2510 2509 2506 ] final  -49.69 input  -89.99 | X-H torsion
[ 3721 3712 3711 3710 ] final  -11.27 input -179.91 | X-H torsion
[ 3841 3832 3831 3830 ] final -120.63 input -179.91 | X-H torsion
[ 3767 3762 3761 3758 ] final  130.58 input  -89.99 | X-H torsion
[ 2472 2467 2466 2463 ] final  -70.30 input  -89.97 | X-H torsion

> <Gold.Protein.ActiveResidues>
 VAL82   VAL86   LEU89   PHE106  VAL107  ASP110  VAL111  MET112  CYS114  THR115 
 CYS181  SER182  ILE183  PHE188  VAL189  ILE190  SER192  SER193  SER196  TRP342 
 PHE345  PHE346  HIS349  VAL350  TYR365  THR369  GLY372  TYR373 

> <Gold.Protein.RotatedAtoms>
    4.5709   -8.5456    4.3557 H   0  0  0  0  0  0  0  0  0  0  0  0  # atno 1303 bound_to 1298
    0.6864   -8.1722    7.0907 H   0  0  0  0  0  0  0  0  0  0  0  0  # atno 2461 bound_to 2456
   -3.8133   -5.2455    9.0938 H   0  0  0  0  0  0  0  0  0  0  0  0  # atno 2472 bound_to 2467
    2.7989   -8.3345    4.3569 H   0  0  0  0  0  0  0  0  0  0  0  0  # atno 2515 bound_to 2510
   -2.5185  -17.8785   14.3902 H   0  0  0  0  0  0  0  0  0  0  0  0  # atno 3721 bound_to 3712
   -3.9173  -23.1001   11.0484 H   0  0  0  0  0  0  0  0  0  0  0  0  # atno 3767 bound_to 3762
    2.2323  -19.5950    8.4533 H   0  0  0  0  0  0  0  0  0  0  0  0  # atno 3841 bound_to 3832
    4.4590  -10.0893    4.8763 LP  0  0  0  0  0  0  0  0  0  0  0  0  # atno 4297 bound_to 1298
    3.3322   -9.4867    3.8595 LP  0  0  0  0  0  0  0  0  0  0  0  0  # atno 4298 bound_to 1298
    0.8981   -9.2804    8.2716 LP  0  0  0  0  0  0  0  0  0  0  0  0  # atno 4299 bound_to 2456
    2.1530   -8.3554    7.7856 LP  0  0  0  0  0  0  0  0  0  0  0  0  # atno 4300 bound_to 2456
    2.3949   -9.1332    5.7224 LP  0  0  0  0  0  0  0  0  0  0  0  0  # atno 4301 bound_to 2510
    2.1027   -7.5315    5.5964 LP  0  0  0  0  0  0  0  0  0  0  0  0  # atno 4302 bound_to 2510
   -3.4983  -16.6104   14.2913 LP  0  0  0  0  0  0  0  0  0  0  0  0  # atno 4306 bound_to 3712
   -3.1216  -17.4748   12.9580 LP  0  0  0  0  0  0  0  0  0  0  0  0  # atno 4307 bound_to 3712
    3.0588  -20.9218    8.8177 LP  0  0  0  0  0  0  0  0  0  0  0  0  # atno 4314 bound_to 3832
    1.5919  -20.6483    9.4811 LP  0  0  0  0  0  0  0  0  0  0  0  0  # atno 4315 bound_to 3832
   -5.2182  -22.8450   10.0946 LP  0  0  0  0  0  0  0  0  0  0  0  0  # atno 4318 bound_to 3762
   -4.9915  -21.9301   11.4282 LP  0  0  0  0  0  0  0  0  0  0  0  0  # atno 4319 bound_to 3762
   -5.4288   -5.3445    8.8776 LP  0  0  0  0  0  0  0  0  0  0  0  0  # atno 4320 bound_to 2467
   -4.4747   -4.8035    7.6678 LP  0  0  0  0  0  0  0  0  0  0  0  0  # atno 4321 bound_to 2467

> <Gold.Score>
     Score     S(PLP)   S(hbond)     S(cho)   S(metal)  DE(clash)   DE(tors)     intcor
     34.58     -32.18       1.00       0.00       0.00       0.00       0.30       0.00

> <Gold.PLP.Fitness>
34.5787

> <Gold.PLP.PLP>
-32.1770

> <Gold.PLP.part.hbond>
-1.0000

> <Gold.PLP.part.metal>
0.0000

> <Gold.PLP.part.buried>
-4.6984

> <Gold.PLP.part.nonpolar>
-27.3448

> <Gold.PLP.part.repulsive>
0.1333

> <Gold.PLP.ligand.clash>
0.0000

> <Gold.PLP.ligand.torsion>
0.2996

> <Gold.PLP.Chemscore.Hbond>
1.0000

> <Gold.PLP.Chemscore.CHOScore>
0.0000

> <Gold.PLP.Chemscore.Metal>
0.0000

> <Gold.Chemscore.Hbonds>
donor molecule, donor type, donor heavy atom, donor atom, acceptor molecule, acceptor atom, score
      L1  H     1    16       P1  2456  1.00

> <Gold.PLP.Chemscore.Internal.Correction>
0.0009

