#       Name:                EN300-1231025_i001
#       Creating user name   fsindt
#       Creation time:       Mon Feb 27 18:14:29 2023


#       File generated by GOLD software.
#

@<TRIPOS>MOLECULE
EN300-1231025_i001|acide_1|mol2|268|dock12
    16    15     1
SMALL
USER_CHARGES


@<TRIPOS>ATOM
      1 O1          -0.9571 -11.3582  11.7008 O.3            1 <1>                0.0000
      2 C2          -0.9083 -10.5246  10.5412 C.3            1 <1>                0.0000
      3 C3          -2.3171 -10.0284  10.2101 C.3            1 <1>                0.0000
      4 C4          -3.2807 -11.2163  10.1734 C.3            1 <1>                0.0000
      5 C5          -4.6362 -10.7388   9.8548 C.1            1 <1>                0.0000
      6 C6          -5.7173 -10.3580   9.6008 C.1            1 <1>                0.0000
      7 C7          -0.3672 -11.3143   9.3773 C.2            1 <1>                0.0000
      8 O8           0.6965 -11.0013   8.8702 O.co2          1 <1>                0.0000
      9 O9          -0.9931 -12.2660   8.9427 O.co2          1 <1>               -1.0000
     10 H10         -0.2585  -9.6710  10.7345 H              1 <1>                0.0000
     11 H11         -2.6417  -9.3206  10.9729 H              1 <1>                0.0000
     12 H12         -2.3098  -9.5363   9.2375 H              1 <1>                0.0000
     13 H13         -2.9562 -11.9239   9.4106 H              1 <1>                0.0000
     14 H14         -3.2881 -11.7083  11.1460 H              1 <1>                0.0000
     15 H15         -6.6842 -10.0174   9.3736 H              1 <1>                0.0000
     16 H16         -0.9217 -10.8725  12.5362 H              1 <1>                0.0000
@<TRIPOS>BOND
    1    1    2 1     
    2    1   16 1     
    3    2    3 1     
    4    2    7 1     
    5    2   10 1     
    6    3    4 1     
    7    3   11 1     
    8    3   12 1     
    9    4    5 1     
   10    4   13 1     
   11    4   14 1     
   12    5    6 3     
   13    6   15 1     
   14    7    8 ar    
   15    7    9 ar    
@<TRIPOS>SUBSTRUCTURE
      1 ****           1
@<TRIPOS>SET
DONOR_HYDROGENS      STATIC     ATOMS    <user>   **** ""
1 16
ATOM$RED        STATIC     ATOMS    COLORGROUP SYSTEM
1 16
@<TRIPOS>COMMENT
> <Gold.Version>
2022.2.0

> <Gold.Id.Protein>
3pbl|protein|mol2

> <Gold.Protein.RotatedTorsions>
[ 1303 1298 1297 1294 ] final  121.01 input  179.99 | X-H torsion
[ 2461 2456 2455 2452 ] final -145.39 input   30.03 | X-H torsion
[ 2515 2510 2509 2506 ] final   93.78 input  -89.99 | X-H torsion
[ 3721 3712 3711 3710 ] final   -1.41 input -179.91 | X-H torsion
[ 3841 3832 3831 3830 ] final  170.25 input -179.91 | X-H torsion
[ 3767 3762 3761 3758 ] final   -0.60 input  -89.99 | X-H torsion
[ 2472 2467 2466 2463 ] final  -26.10 input  -89.97 | X-H torsion

> <Gold.Protein.ActiveResidues>
 VAL82   VAL86   LEU89   PHE106  VAL107  ASP110  VAL111  MET112  CYS114  THR115 
 CYS181  SER182  ILE183  PHE188  VAL189  ILE190  SER192  SER193  SER196  TRP342 
 PHE345  PHE346  HIS349  VAL350  TYR365  THR369  GLY372  TYR373 

> <Gold.Protein.RotatedAtoms>
    4.7510   -9.7568    4.9509 H   0  0  0  0  0  0  0  0  0  0  0  0  # atno 1303 bound_to 1298
    0.9078   -9.2818    8.2764 H   0  0  0  0  0  0  0  0  0  0  0  0  # atno 2461 bound_to 2456
   -3.6441   -4.9955    8.4518 H   0  0  0  0  0  0  0  0  0  0  0  0  # atno 2472 bound_to 2467
    2.0374   -7.7816    5.8794 H   0  0  0  0  0  0  0  0  0  0  0  0  # atno 2515 bound_to 2510
   -2.4900  -17.9483   14.2617 H   0  0  0  0  0  0  0  0  0  0  0  0  # atno 3721 bound_to 3712
   -5.3285  -22.7093   10.1510 H   0  0  0  0  0  0  0  0  0  0  0  0  # atno 3767 bound_to 3762
    3.0328  -20.1638    8.4669 H   0  0  0  0  0  0  0  0  0  0  0  0  # atno 3841 bound_to 3832
    3.3915   -9.8858    4.0556 LP  0  0  0  0  0  0  0  0  0  0  0  0  # atno 4297 bound_to 1298
    4.2195   -8.4786    4.0849 LP  0  0  0  0  0  0  0  0  0  0  0  0  # atno 4298 bound_to 1298
    2.1516   -8.3480    7.7777 LP  0  0  0  0  0  0  0  0  0  0  0  0  # atno 4299 bound_to 2456
    0.6783   -8.1786    7.0942 LP  0  0  0  0  0  0  0  0  0  0  0  0  # atno 4300 bound_to 2456
    2.7014   -7.9662    4.3993 LP  0  0  0  0  0  0  0  0  0  0  0  0  # atno 4301 bound_to 2510
    2.5581   -9.2516    5.3962 LP  0  0  0  0  0  0  0  0  0  0  0  0  # atno 4302 bound_to 2510
   -3.4497  -16.6729   14.4357 LP  0  0  0  0  0  0  0  0  0  0  0  0  # atno 4306 bound_to 3712
   -3.2032  -17.3318   12.9620 LP  0  0  0  0  0  0  0  0  0  0  0  0  # atno 4307 bound_to 3712
    2.2257  -21.0986    9.4919 LP  0  0  0  0  0  0  0  0  0  0  0  0  # atno 4314 bound_to 3832
    1.5003  -19.8144    8.7912 LP  0  0  0  0  0  0  0  0  0  0  0  0  # atno 4315 bound_to 3832
   -4.8407  -21.9719   11.5240 LP  0  0  0  0  0  0  0  0  0  0  0  0  # atno 4318 bound_to 3762
   -3.9583  -23.1939   10.8957 LP  0  0  0  0  0  0  0  0  0  0  0  0  # atno 4319 bound_to 3762
   -4.9201   -5.4617    9.3579 LP  0  0  0  0  0  0  0  0  0  0  0  0  # atno 4320 bound_to 2467
   -5.1526   -4.9363    7.8293 LP  0  0  0  0  0  0  0  0  0  0  0  0  # atno 4321 bound_to 2467

> <Gold.Score>
     Score     S(PLP)   S(hbond)     S(cho)   S(metal)  DE(clash)   DE(tors)     intcor
     34.04     -31.22       1.00       0.00       0.00       0.00       0.09       0.00

> <Gold.PLP.Fitness>
34.0434

> <Gold.PLP.PLP>
-31.2151

> <Gold.PLP.part.hbond>
-1.0000

> <Gold.PLP.part.metal>
0.0000

> <Gold.PLP.part.buried>
-1.5463

> <Gold.PLP.part.nonpolar>
-28.7436

> <Gold.PLP.part.repulsive>
0.0000

> <Gold.PLP.ligand.clash>
0.0000

> <Gold.PLP.ligand.torsion>
0.0863

> <Gold.PLP.Chemscore.Hbond>
1.0000

> <Gold.PLP.Chemscore.CHOScore>
0.0000

> <Gold.PLP.Chemscore.Metal>
0.0000

> <Gold.Chemscore.Hbonds>
donor molecule, donor type, donor heavy atom, donor atom, acceptor molecule, acceptor atom, score
      P1  H  2456  2461       L1     8  1.00

> <Gold.PLP.Chemscore.Internal.Correction>
0.0009

