#       Name:                EN300-1231025_i001
#       Creating user name   fsindt
#       Creation time:       Mon Feb 27 18:14:23 2023


#       File generated by GOLD software.
#

@<TRIPOS>MOLECULE
EN300-1231025_i001|acide_1|mol2|268|dock6
    16    15     1
SMALL
USER_CHARGES


@<TRIPOS>ATOM
      1 O1           0.1834 -10.5140  10.4816 O.3            1 <1>                0.0000
      2 C2          -0.4619 -11.6479   9.8988 C.3            1 <1>                0.0000
      3 C3          -1.8006 -11.2184   9.2952 C.3            1 <1>                0.0000
      4 C4          -2.6251 -10.4834  10.3539 C.3            1 <1>                0.0000
      5 C5          -4.0585 -10.6631  10.0715 C.1            1 <1>                0.0000
      6 C6          -5.2017 -10.8066   9.8462 C.1            1 <1>                0.0000
      7 C7          -0.7009 -12.6906  10.9602 C.2            1 <1>                0.0000
      8 O8          -0.2945 -13.8288  10.7990 O.co2          1 <1>                0.0000
      9 O9          -1.3004 -12.3961  11.9801 O.co2          1 <1>               -1.0000
     10 H10          0.1724 -12.0646   9.1163 H              1 <1>                0.0000
     11 H11         -1.6215 -10.5550   8.4490 H              1 <1>                0.0000
     12 H12         -2.3460 -12.0995   8.9570 H              1 <1>                0.0000
     13 H13         -2.3953 -10.8888  11.3392 H              1 <1>                0.0000
     14 H14         -2.3808  -9.4213  10.3319 H              1 <1>                0.0000
     15 H15         -6.2242 -10.9348   9.6446 H              1 <1>                0.0000
     16 H16         -0.4026  -9.7583  10.6248 H              1 <1>                0.0000
@<TRIPOS>BOND
    1    1    2 1     
    2    1   16 1     
    3    2    3 1     
    4    2    7 1     
    5    2   10 1     
    6    3    4 1     
    7    3   11 1     
    8    3   12 1     
    9    4    5 1     
   10    4   13 1     
   11    4   14 1     
   12    5    6 3     
   13    6   15 1     
   14    7    8 ar    
   15    7    9 ar    
@<TRIPOS>SUBSTRUCTURE
      1 ****           1
@<TRIPOS>SET
DONOR_HYDROGENS      STATIC     ATOMS    <user>   **** ""
1 16
ATOM$RED        STATIC     ATOMS    COLORGROUP SYSTEM
1 16
@<TRIPOS>COMMENT
> <Gold.Version>
2022.2.0

> <Gold.Id.Protein>
3pbl|protein|mol2

> <Gold.Protein.RotatedTorsions>
[ 1303 1298 1297 1294 ] final -145.58 input  179.99 | X-H torsion
[ 2461 2456 2455 2452 ] final -149.22 input   30.03 | X-H torsion
[ 2515 2510 2509 2506 ] final  135.94 input  -89.99 | X-H torsion
[ 3721 3712 3711 3710 ] final  151.55 input -179.91 | X-H torsion
[ 3841 3832 3831 3830 ] final   57.03 input -179.91 | X-H torsion
[ 3767 3762 3761 3758 ] final -119.06 input  -89.99 | X-H torsion
[ 2472 2467 2466 2463 ] final   52.82 input  -89.97 | X-H torsion

> <Gold.Protein.ActiveResidues>
 VAL82   VAL86   LEU89   PHE106  VAL107  ASP110  VAL111  MET112  CYS114  THR115 
 CYS181  SER182  ILE183  PHE188  VAL189  ILE190  SER192  SER193  SER196  TRP342 
 PHE345  PHE346  HIS349  VAL350  TYR365  THR369  GLY372  TYR373 

> <Gold.Protein.RotatedAtoms>
    4.5601   -8.5400    4.3460 H   0  0  0  0  0  0  0  0  0  0  0  0  # atno 1303 bound_to 1298
    0.9653   -9.2868    8.3015 H   0  0  0  0  0  0  0  0  0  0  0  0  # atno 2461 bound_to 2456
   -4.5256   -4.8078    7.6620 H   0  0  0  0  0  0  0  0  0  0  0  0  # atno 2472 bound_to 2467
    2.0841   -8.4223    6.0963 H   0  0  0  0  0  0  0  0  0  0  0  0  # atno 2515 bound_to 2510
   -3.2140  -16.8476   13.2121 H   0  0  0  0  0  0  0  0  0  0  0  0  # atno 3721 bound_to 3712
   -4.8615  -21.9640   11.5121 H   0  0  0  0  0  0  0  0  0  0  0  0  # atno 3767 bound_to 3762
    2.4304  -20.9353    9.5306 H   0  0  0  0  0  0  0  0  0  0  0  0  # atno 3841 bound_to 3832
    4.4707  -10.0802    4.8810 LP  0  0  0  0  0  0  0  0  0  0  0  0  # atno 4297 bound_to 1298
    3.3312   -9.5015    3.8646 LP  0  0  0  0  0  0  0  0  0  0  0  0  # atno 4298 bound_to 1298
    2.1407   -8.3062    7.7321 LP  0  0  0  0  0  0  0  0  0  0  0  0  # atno 4299 bound_to 2456
    0.6317   -8.2154    7.1147 LP  0  0  0  0  0  0  0  0  0  0  0  0  # atno 4300 bound_to 2456
    2.4299   -7.4913    4.8004 LP  0  0  0  0  0  0  0  0  0  0  0  0  # atno 4301 bound_to 2510
    2.7830   -9.0855    4.7782 LP  0  0  0  0  0  0  0  0  0  0  0  0  # atno 4302 bound_to 2510
   -2.6212  -18.2166   13.8058 LP  0  0  0  0  0  0  0  0  0  0  0  0  # atno 4306 bound_to 3712
   -3.1959  -17.0588   14.8037 LP  0  0  0  0  0  0  0  0  0  0  0  0  # atno 4307 bound_to 3712
    1.4737  -19.8484    8.8381 LP  0  0  0  0  0  0  0  0  0  0  0  0  # atno 4314 bound_to 3832
    2.9482  -20.1735    8.2162 LP  0  0  0  0  0  0  0  0  0  0  0  0  # atno 4315 bound_to 3832
   -3.9510  -23.1822   10.9171 LP  0  0  0  0  0  0  0  0  0  0  0  0  # atno 4318 bound_to 3762
   -5.3149  -22.7286   10.1421 LP  0  0  0  0  0  0  0  0  0  0  0  0  # atno 4319 bound_to 3762
   -3.7845   -5.2276    9.0552 LP  0  0  0  0  0  0  0  0  0  0  0  0  # atno 4320 bound_to 2467
   -5.4068   -5.3580    8.9218 LP  0  0  0  0  0  0  0  0  0  0  0  0  # atno 4321 bound_to 2467

> <Gold.Score>
     Score     S(PLP)   S(hbond)     S(cho)   S(metal)  DE(clash)   DE(tors)     intcor
     33.72     -34.24       0.00       0.00       0.00       0.00       0.26       0.00

> <Gold.PLP.Fitness>
33.7223

> <Gold.PLP.PLP>
-34.2417

> <Gold.PLP.part.hbond>
-1.0000

> <Gold.PLP.part.metal>
0.0000

> <Gold.PLP.part.buried>
-3.1783

> <Gold.PLP.part.nonpolar>
-30.2523

> <Gold.PLP.part.repulsive>
0.0991

> <Gold.PLP.ligand.clash>
0.0000

> <Gold.PLP.ligand.torsion>
0.2601

> <Gold.PLP.Chemscore.Hbond>
0.0000

> <Gold.PLP.Chemscore.CHOScore>
0.0000

> <Gold.PLP.Chemscore.Metal>
0.0000

> <Gold.PLP.Chemscore.Internal.Correction>
0.0009

