#       Name:                EN300-1231025_i001
#       Creating user name   fsindt
#       Creation time:       Mon Feb 27 18:14:34 2023


#       File generated by GOLD software.
#

@<TRIPOS>MOLECULE
EN300-1231025_i001|acide_1|mol2|268|dock17
    16    15     1
SMALL
USER_CHARGES


@<TRIPOS>ATOM
      1 O1           0.6666 -11.1011   7.8481 O.3            1 <1>                0.0000
      2 C2          -0.1835 -11.9078   8.6656 C.3            1 <1>                0.0000
      3 C3          -0.3082 -11.2742  10.0526 C.3            1 <1>                0.0000
      4 C4          -1.5695 -11.7990  10.7416 C.3            1 <1>                0.0000
      5 C5          -2.7379 -11.0363  10.2730 C.1            1 <1>                0.0000
      6 C6          -3.6699 -10.4279   9.8993 C.1            1 <1>                0.0000
      7 C7           0.4068 -13.2884   8.7952 C.2            1 <1>                0.0000
      8 O8           0.5698 -13.9773   7.8025 O.co2          1 <1>                0.0000
      9 O9           0.7214 -13.7164   9.8926 O.co2          1 <1>               -1.0000
     10 H10         -1.1701 -11.9762   8.2073 H              1 <1>                0.0000
     11 H11          0.5663 -11.5324  10.6500 H              1 <1>                0.0000
     12 H12         -0.3729 -10.1907   9.9526 H              1 <1>                0.0000
     13 H13         -1.7033 -12.8534  10.5002 H              1 <1>                0.0000
     14 H14         -1.4689 -11.6832  11.8208 H              1 <1>                0.0000
     15 H15         -4.5035  -9.8838   9.5651 H              1 <1>                0.0000
     16 H16          1.4503 -11.5628   7.5198 H              1 <1>                0.0000
@<TRIPOS>BOND
    1    1    2 1     
    2    1   16 1     
    3    2    3 1     
    4    2    7 1     
    5    2   10 1     
    6    3    4 1     
    7    3   11 1     
    8    3   12 1     
    9    4    5 1     
   10    4   13 1     
   11    4   14 1     
   12    5    6 3     
   13    6   15 1     
   14    7    8 ar    
   15    7    9 ar    
@<TRIPOS>SUBSTRUCTURE
      1 ****           1
@<TRIPOS>SET
DONOR_HYDROGENS      STATIC     ATOMS    <user>   **** ""
1 16
ATOM$RED        STATIC     ATOMS    COLORGROUP SYSTEM
1 16
@<TRIPOS>COMMENT
> <Gold.Version>
2022.2.0

> <Gold.Id.Protein>
3pbl|protein|mol2

> <Gold.Protein.RotatedTorsions>
[ 1303 1298 1297 1294 ] final  136.05 input  179.99 | X-H torsion
[ 2461 2456 2455 2452 ] final -146.62 input   30.03 | X-H torsion
[ 2515 2510 2509 2506 ] final  -33.84 input  -89.99 | X-H torsion
[ 3721 3712 3711 3710 ] final   -2.73 input -179.91 | X-H torsion
[ 3841 3832 3831 3830 ] final  -73.34 input -179.91 | X-H torsion
[ 3767 3762 3761 3758 ] final -167.33 input  -89.99 | X-H torsion
[ 2472 2467 2466 2463 ] final -132.61 input  -89.97 | X-H torsion

> <Gold.Protein.ActiveResidues>
 VAL82   VAL86   LEU89   PHE106  VAL107  ASP110  VAL111  MET112  CYS114  THR115 
 CYS181  SER182  ILE183  PHE188  VAL189  ILE190  SER192  SER193  SER196  TRP342 
 PHE345  PHE346  HIS349  VAL350  TYR365  THR369  GLY372  TYR373 

> <Gold.Protein.RotatedAtoms>
    4.8534   -9.5329    4.9352 H   0  0  0  0  0  0  0  0  0  0  0  0  # atno 1303 bound_to 1298
    0.9261   -9.2837    8.2847 H   0  0  0  0  0  0  0  0  0  0  0  0  # atno 2461 bound_to 2456
   -4.7073   -5.4611    9.4192 H   0  0  0  0  0  0  0  0  0  0  0  0  # atno 2472 bound_to 2467
    2.7390   -8.0820    4.3700 H   0  0  0  0  0  0  0  0  0  0  0  0  # atno 2515 bound_to 2510
   -2.4931  -17.9400   14.2797 H   0  0  0  0  0  0  0  0  0  0  0  0  # atno 3721 bound_to 3712
   -4.2228  -22.3803   11.6269 H   0  0  0  0  0  0  0  0  0  0  0  0  # atno 3767 bound_to 3762
    1.6979  -19.7051    8.8827 H   0  0  0  0  0  0  0  0  0  0  0  0  # atno 3841 bound_to 3832
    3.4961  -10.0598    4.1958 LP  0  0  0  0  0  0  0  0  0  0  0  0  # atno 4297 bound_to 1298
    4.0124   -8.5286    3.9604 LP  0  0  0  0  0  0  0  0  0  0  0  0  # atno 4298 bound_to 1298
    2.1485   -8.3345    7.7631 LP  0  0  0  0  0  0  0  0  0  0  0  0  # atno 4299 bound_to 2456
    0.6630   -8.1902    7.1005 LP  0  0  0  0  0  0  0  0  0  0  0  0  # atno 4300 bound_to 2456
    2.5061   -9.2294    5.5080 LP  0  0  0  0  0  0  0  0  0  0  0  0  # atno 4301 bound_to 2510
    2.0515   -7.6879    5.7976 LP  0  0  0  0  0  0  0  0  0  0  0  0  # atno 4302 bound_to 2510
   -3.4569  -16.6632   14.4171 LP  0  0  0  0  0  0  0  0  0  0  0  0  # atno 4306 bound_to 3712
   -3.1924  -17.3510   12.9598 LP  0  0  0  0  0  0  0  0  0  0  0  0  # atno 4307 bound_to 3712
    3.0518  -20.3475    8.3078 LP  0  0  0  0  0  0  0  0  0  0  0  0  # atno 4314 bound_to 3832
    2.2162  -21.0954    9.4949 LP  0  0  0  0  0  0  0  0  0  0  0  0  # atno 4315 bound_to 3832
   -4.3996  -23.3252   10.3068 LP  0  0  0  0  0  0  0  0  0  0  0  0  # atno 4318 bound_to 3762
   -5.5048  -22.1695   10.6377 LP  0  0  0  0  0  0  0  0  0  0  0  0  # atno 4319 bound_to 3762
   -5.3085   -5.0046    7.9713 LP  0  0  0  0  0  0  0  0  0  0  0  0  # atno 4320 bound_to 2467
   -3.7011   -4.9278    8.2488 LP  0  0  0  0  0  0  0  0  0  0  0  0  # atno 4321 bound_to 2467

> <Gold.Score>
     Score     S(PLP)   S(hbond)     S(cho)   S(metal)  DE(clash)   DE(tors)     intcor
     33.24     -31.09       0.93       0.00       0.00       0.00       0.32       0.00

> <Gold.PLP.Fitness>
33.2357

> <Gold.PLP.PLP>
-31.0918

> <Gold.PLP.part.hbond>
-1.0000

> <Gold.PLP.part.metal>
0.0000

> <Gold.PLP.part.buried>
-4.1006

> <Gold.PLP.part.nonpolar>
-26.3563

> <Gold.PLP.part.repulsive>
0.0958

> <Gold.PLP.ligand.clash>
0.0000

> <Gold.PLP.ligand.torsion>
0.3204

> <Gold.PLP.Chemscore.Hbond>
0.9280

> <Gold.PLP.Chemscore.CHOScore>
0.0000

> <Gold.PLP.Chemscore.Metal>
0.0000

> <Gold.Chemscore.Hbonds>
donor molecule, donor type, donor heavy atom, donor atom, acceptor molecule, acceptor atom, score
      P1  H  2456  2461       L1     1  0.93

> <Gold.PLP.Chemscore.Internal.Correction>
0.0007

