#       Name:                EN300-1231025_i001
#       Creating user name   fsindt
#       Creation time:       Mon Feb 27 18:14:20 2023


#       File generated by GOLD software.
#

@<TRIPOS>MOLECULE
EN300-1231025_i001|acide_1|mol2|268|dock2
    16    15     1
SMALL
USER_CHARGES


@<TRIPOS>ATOM
      1 O1           1.9719 -15.5977  11.7129 O.3            1 <1>                0.0000
      2 C2           0.7508 -15.9844  12.3462 C.3            1 <1>                0.0000
      3 C3          -0.2065 -14.7914  12.3795 C.3            1 <1>                0.0000
      4 C4          -0.2489 -14.1328  10.9992 C.3            1 <1>                0.0000
      5 C5          -1.0011 -12.8702  11.0809 C.1            1 <1>                0.0000
      6 C6          -1.6011 -11.8632  11.1461 C.1            1 <1>                0.0000
      7 C7           1.0371 -16.4383  13.7545 C.2            1 <1>                0.0000
      8 O8           0.4773 -15.8996  14.6942 O.co2          1 <1>                0.0000
      9 O9           1.8284 -17.3441  13.9541 O.co2          1 <1>               -1.0000
     10 H10          0.2942 -16.8011  11.7871 H              1 <1>                0.0000
     11 H11         -1.2053 -15.1344  12.6493 H              1 <1>                0.0000
     12 H12          0.1406 -14.0676  13.1170 H              1 <1>                0.0000
     13 H13          0.7675 -13.9290  10.6625 H              1 <1>                0.0000
     14 H14         -0.7386 -14.8024  10.2920 H              1 <1>                0.0000
     15 H15         -2.1378 -10.9625  11.2044 H              1 <1>                0.0000
     16 H16          2.1294 -16.0324  10.8635 H              1 <1>                0.0000
@<TRIPOS>BOND
    1    1    2 1     
    2    1   16 1     
    3    2    3 1     
    4    2    7 1     
    5    2   10 1     
    6    3    4 1     
    7    3   11 1     
    8    3   12 1     
    9    4    5 1     
   10    4   13 1     
   11    4   14 1     
   12    5    6 3     
   13    6   15 1     
   14    7    8 ar    
   15    7    9 ar    
@<TRIPOS>SUBSTRUCTURE
      1 ****           1
@<TRIPOS>SET
DONOR_HYDROGENS      STATIC     ATOMS    <user>   **** ""
1 16
ATOM$RED        STATIC     ATOMS    COLORGROUP SYSTEM
1 16
@<TRIPOS>COMMENT
> <Gold.Version>
2022.2.0

> <Gold.Id.Protein>
3pbl|protein|mol2

> <Gold.Protein.RotatedTorsions>
[ 1303 1298 1297 1294 ] final   53.41 input  179.99 | X-H torsion
[ 2461 2456 2455 2452 ] final   26.84 input   30.03 | X-H torsion
[ 2515 2510 2509 2506 ] final   41.90 input  -89.99 | X-H torsion
[ 3721 3712 3711 3710 ] final   76.64 input -179.91 | X-H torsion
[ 3841 3832 3831 3830 ] final  109.18 input -179.91 | X-H torsion
[ 3767 3762 3761 3758 ] final -102.71 input  -89.99 | X-H torsion
[ 2472 2467 2466 2463 ] final  148.99 input  -89.97 | X-H torsion

> <Gold.Protein.ActiveResidues>
 VAL82   VAL86   LEU89   PHE106  VAL107  ASP110  VAL111  MET112  CYS114  THR115 
 CYS181  SER182  ILE183  PHE188  VAL189  ILE190  SER192  SER193  SER196  TRP342 
 PHE345  PHE346  HIS349  VAL350  TYR365  THR369  GLY372  TYR373 

> <Gold.Protein.RotatedAtoms>
    3.9190  -10.2707    4.5721 H   0  0  0  0  0  0  0  0  0  0  0  0  # atno 1303 bound_to 1298
    1.4660   -7.9166    7.1075 H   0  0  0  0  0  0  0  0  0  0  0  0  # atno 2461 bound_to 2456
   -5.5085   -5.2413    8.5648 H   0  0  0  0  0  0  0  0  0  0  0  0  # atno 2472 bound_to 2467
    2.2536   -7.4090    5.1765 H   0  0  0  0  0  0  0  0  0  0  0  0  # atno 2515 bound_to 2510
   -2.6906  -17.7620   13.2059 H   0  0  0  0  0  0  0  0  0  0  0  0  # atno 3721 bound_to 3712
   -5.0771  -21.9170   11.3595 H   0  0  0  0  0  0  0  0  0  0  0  0  # atno 3767 bound_to 3762
    3.0155  -20.8136    9.0594 H   0  0  0  0  0  0  0  0  0  0  0  0  # atno 3841 bound_to 3832
    3.5590   -8.8865    3.7842 LP  0  0  0  0  0  0  0  0  0  0  0  0  # atno 4297 bound_to 1298
    4.8843   -8.9638    4.7351 LP  0  0  0  0  0  0  0  0  0  0  0  0  # atno 4298 bound_to 1298
    0.3665   -8.9411    7.7471 LP  0  0  0  0  0  0  0  0  0  0  0  0  # atno 4299 bound_to 2456
    1.9053   -8.9502    8.2933 LP  0  0  0  0  0  0  0  0  0  0  0  0  # atno 4300 bound_to 2456
    2.8350   -8.7743    4.4957 LP  0  0  0  0  0  0  0  0  0  0  0  0  # atno 4301 bound_to 2510
    2.2082   -8.8163    6.0030 LP  0  0  0  0  0  0  0  0  0  0  0  0  # atno 4302 bound_to 2510
   -2.8541  -17.6559   14.7996 LP  0  0  0  0  0  0  0  0  0  0  0  0  # atno 4306 bound_to 3712
   -3.5672  -16.5638   13.8171 LP  0  0  0  0  0  0  0  0  0  0  0  0  # atno 4307 bound_to 3712
    1.4825  -20.4781    9.3965 LP  0  0  0  0  0  0  0  0  0  0  0  0  # atno 4314 bound_to 3832
    2.2635  -19.6842    8.2021 LP  0  0  0  0  0  0  0  0  0  0  0  0  # atno 4315 bound_to 3832
   -3.9080  -23.0354   11.1374 LP  0  0  0  0  0  0  0  0  0  0  0  0  # atno 4318 bound_to 3762
   -5.1424  -22.9224   10.0743 LP  0  0  0  0  0  0  0  0  0  0  0  0  # atno 4319 bound_to 3762
   -4.1514   -4.8043    7.7687 LP  0  0  0  0  0  0  0  0  0  0  0  0  # atno 4320 bound_to 2467
   -4.0572   -5.3479    9.3057 LP  0  0  0  0  0  0  0  0  0  0  0  0  # atno 4321 bound_to 2467

> <Gold.Score>
     Score     S(PLP)   S(hbond)     S(cho)   S(metal)  DE(clash)   DE(tors)     intcor
     34.05     -28.29       2.00       0.00       0.00       0.00       0.12       0.00

> <Gold.PLP.Fitness>
34.0509

> <Gold.PLP.PLP>
-28.2914

> <Gold.PLP.part.hbond>
-2.0000

> <Gold.PLP.part.metal>
0.0000

> <Gold.PLP.part.buried>
-4.5698

> <Gold.PLP.part.nonpolar>
-22.4887

> <Gold.PLP.part.repulsive>
0.1041

> <Gold.PLP.ligand.clash>
0.0000

> <Gold.PLP.ligand.torsion>
0.1206

> <Gold.PLP.Chemscore.Hbond>
2.0000

> <Gold.PLP.Chemscore.CHOScore>
0.0000

> <Gold.PLP.Chemscore.Metal>
0.0000

> <Gold.Chemscore.Hbonds>
donor molecule, donor type, donor heavy atom, donor atom, acceptor molecule, acceptor atom, score
      L1  H     1    16       P1  1227  1.00
      P1  H  2305  2313       L1     8  1.00

> <Gold.PLP.Chemscore.Internal.Correction>
0.0009

