#       Name:                EN300-1231025_i001
#       Creating user name   fsindt
#       Creation time:       Mon Feb 27 18:14:32 2023


#       File generated by GOLD software.
#

@<TRIPOS>MOLECULE
EN300-1231025_i001|acide_1|mol2|268|dock15
    16    15     1
SMALL
USER_CHARGES


@<TRIPOS>ATOM
      1 O1           0.1620  -9.9019  11.1327 O.3            1 <1>                0.0000
      2 C2          -0.7974 -10.4651  10.2359 C.3            1 <1>                0.0000
      3 C3          -1.8248 -11.2738  11.0304 C.3            1 <1>                0.0000
      4 C4          -2.9290 -11.7602  10.0896 C.3            1 <1>                0.0000
      5 C5          -3.9702 -10.7257   9.9789 C.1            1 <1>                0.0000
      6 C6          -4.8006  -9.9005   9.8906 C.1            1 <1>                0.0000
      7 C7          -0.0972 -11.3689   9.2541 C.2            1 <1>                0.0000
      8 O8          -0.0990 -11.0958   8.0658 O.co2          1 <1>                0.0000
      9 O9           0.4711 -12.3731   9.6479 O.co2          1 <1>               -1.0000
     10 H10         -1.3036  -9.6649   9.6960 H              1 <1>                0.0000
     11 H11         -1.3348 -12.1321  11.4901 H              1 <1>                0.0000
     12 H12         -2.2601 -10.6450  11.8071 H              1 <1>                0.0000
     13 H13         -2.5062 -11.9570   9.1045 H              1 <1>                0.0000
     14 H14         -3.3673 -12.6759  10.4865 H              1 <1>                0.0000
     15 H15         -5.5434  -9.1625   9.8116 H              1 <1>                0.0000
     16 H16          0.0776  -8.9456  11.2493 H              1 <1>                0.0000
@<TRIPOS>BOND
    1    1    2 1     
    2    1   16 1     
    3    2    3 1     
    4    2    7 1     
    5    2   10 1     
    6    3    4 1     
    7    3   11 1     
    8    3   12 1     
    9    4    5 1     
   10    4   13 1     
   11    4   14 1     
   12    5    6 3     
   13    6   15 1     
   14    7    8 ar    
   15    7    9 ar    
@<TRIPOS>SUBSTRUCTURE
      1 ****           1
@<TRIPOS>SET
DONOR_HYDROGENS      STATIC     ATOMS    <user>   **** ""
1 16
ATOM$RED        STATIC     ATOMS    COLORGROUP SYSTEM
1 16
@<TRIPOS>COMMENT
> <Gold.Version>
2022.2.0

> <Gold.Id.Protein>
3pbl|protein|mol2

> <Gold.Protein.RotatedTorsions>
[ 1303 1298 1297 1294 ] final   16.66 input  179.99 | X-H torsion
[ 2461 2456 2455 2452 ] final -129.60 input   30.03 | X-H torsion
[ 2515 2510 2509 2506 ] final  -35.52 input  -89.99 | X-H torsion
[ 3721 3712 3711 3710 ] final  100.37 input -179.91 | X-H torsion
[ 3841 3832 3831 3830 ] final  174.08 input -179.91 | X-H torsion
[ 3767 3762 3761 3758 ] final -163.48 input  -89.99 | X-H torsion
[ 2472 2467 2466 2463 ] final  -56.46 input  -89.97 | X-H torsion

> <Gold.Protein.ActiveResidues>
 VAL82   VAL86   LEU89   PHE106  VAL107  ASP110  VAL111  MET112  CYS114  THR115 
 CYS181  SER182  ILE183  PHE188  VAL189  ILE190  SER192  SER193  SER196  TRP342 
 PHE345  PHE346  HIS349  VAL350  TYR365  THR369  GLY372  TYR373 

> <Gold.Protein.RotatedAtoms>
    3.5013  -10.0657    4.2023 H   0  0  0  0  0  0  0  0  0  0  0  0  # atno 1303 bound_to 1298
    0.6890   -9.2295    8.1478 H   0  0  0  0  0  0  0  0  0  0  0  0  # atno 2461 bound_to 2456
   -3.7035   -5.1675    8.9108 H   0  0  0  0  0  0  0  0  0  0  0  0  # atno 2472 bound_to 2467
    2.7465   -8.1082    4.3655 H   0  0  0  0  0  0  0  0  0  0  0  0  # atno 2515 bound_to 2510
   -2.8610  -17.4882   13.0543 H   0  0  0  0  0  0  0  0  0  0  0  0  # atno 3721 bound_to 3712
   -4.2667  -22.3361   11.6380 H   0  0  0  0  0  0  0  0  0  0  0  0  # atno 3767 bound_to 3762
    3.0056  -20.1186    8.4432 H   0  0  0  0  0  0  0  0  0  0  0  0  # atno 3841 bound_to 3832
    4.0041   -8.5318    3.9559 LP  0  0  0  0  0  0  0  0  0  0  0  0  # atno 4297 bound_to 1298
    4.8570   -9.5236    4.9334 LP  0  0  0  0  0  0  0  0  0  0  0  0  # atno 4298 bound_to 1298
    2.1535   -8.5309    7.9611 LP  0  0  0  0  0  0  0  0  0  0  0  0  # atno 4299 bound_to 2456
    0.8951   -8.0479    7.0393 LP  0  0  0  0  0  0  0  0  0  0  0  0  # atno 4300 bound_to 2456
    2.4944   -9.2223    5.5321 LP  0  0  0  0  0  0  0  0  0  0  0  0  # atno 4301 bound_to 2510
    2.0556   -7.6687    5.7781 LP  0  0  0  0  0  0  0  0  0  0  0  0  # atno 4302 bound_to 2510
   -2.7048  -17.9499   14.5841 LP  0  0  0  0  0  0  0  0  0  0  0  0  # atno 4306 bound_to 3712
   -3.5198  -16.5859   14.2074 LP  0  0  0  0  0  0  0  0  0  0  0  0  # atno 4307 bound_to 3712
    2.2838  -21.1168    9.4722 LP  0  0  0  0  0  0  0  0  0  0  0  0  # atno 4314 bound_to 3832
    1.4736  -19.8485    8.8383 LP  0  0  0  0  0  0  0  0  0  0  0  0  # atno 4315 bound_to 3832
   -4.3506  -23.3318   10.3464 LP  0  0  0  0  0  0  0  0  0  0  0  0  # atno 4318 bound_to 3762
   -5.5099  -22.2071   10.5870 LP  0  0  0  0  0  0  0  0  0  0  0  0  # atno 4319 bound_to 3762
   -5.3125   -5.3993    9.0651 LP  0  0  0  0  0  0  0  0  0  0  0  0  # atno 4320 bound_to 2467
   -4.7007   -4.8268    7.6634 LP  0  0  0  0  0  0  0  0  0  0  0  0  # atno 4321 bound_to 2467

> <Gold.Score>
     Score     S(PLP)   S(hbond)     S(cho)   S(metal)  DE(clash)   DE(tors)     intcor
     36.23     -33.64       1.00       0.00       0.00       0.00       0.21       0.00

> <Gold.PLP.Fitness>
36.2250

> <Gold.PLP.PLP>
-33.6386

> <Gold.PLP.part.hbond>
-1.0000

> <Gold.PLP.part.metal>
0.0000

> <Gold.PLP.part.buried>
-4.6602

> <Gold.PLP.part.nonpolar>
-28.4474

> <Gold.PLP.part.repulsive>
0.0000

> <Gold.PLP.ligand.clash>
0.0000

> <Gold.PLP.ligand.torsion>
0.2072

> <Gold.PLP.Chemscore.Hbond>
1.0000

> <Gold.PLP.Chemscore.CHOScore>
0.0000

> <Gold.PLP.Chemscore.Metal>
0.0000

> <Gold.Chemscore.Hbonds>
donor molecule, donor type, donor heavy atom, donor atom, acceptor molecule, acceptor atom, score
      P1  H  2456  2461       L1     8  1.00

> <Gold.PLP.Chemscore.Internal.Correction>
0.0007

