#       Name:                EN300-1231025_i001
#       Creating user name   fsindt
#       Creation time:       Mon Feb 27 18:14:23 2023


#       File generated by GOLD software.
#

@<TRIPOS>MOLECULE
EN300-1231025_i001|acide_1|mol2|268|dock5
    16    15     1
SMALL
USER_CHARGES


@<TRIPOS>ATOM
      1 O1           1.8991 -16.4035  12.2746 O.3            1 <1>                0.0000
      2 C2           0.4738 -16.4177  12.3765 C.3            1 <1>                0.0000
      3 C3          -0.0794 -15.0472  11.9811 C.3            1 <1>                0.0000
      4 C4           0.1999 -14.7928  10.4985 C.3            1 <1>                0.0000
      5 C5          -0.2138 -13.4241  10.1490 C.1            1 <1>                0.0000
      6 C6          -0.5438 -12.3324   9.8703 C.1            1 <1>                0.0000
      7 C7           0.0749 -16.7300  13.7958 C.2            1 <1>                0.0000
      8 O8          -0.5696 -17.7357  14.0406 O.co2          1 <1>                0.0000
      9 O9           0.3965 -15.9771  14.6993 O.co2          1 <1>               -1.0000
     10 H10          0.0694 -17.1790  11.7095 H              1 <1>                0.0000
     11 H11         -1.1548 -15.0248  12.1573 H              1 <1>                0.0000
     12 H12          0.4029 -14.2742  12.5795 H              1 <1>                0.0000
     13 H13          1.2659 -14.9109  10.3041 H              1 <1>                0.0000
     14 H14         -0.3607 -15.5070   9.8954 H              1 <1>                0.0000
     15 H15         -0.8389 -11.3560   9.6210 H              1 <1>                0.0000
     16 H16          2.2391 -16.7976  11.4596 H              1 <1>                0.0000
@<TRIPOS>BOND
    1    1    2 1     
    2    1   16 1     
    3    2    3 1     
    4    2    7 1     
    5    2   10 1     
    6    3    4 1     
    7    3   11 1     
    8    3   12 1     
    9    4    5 1     
   10    4   13 1     
   11    4   14 1     
   12    5    6 3     
   13    6   15 1     
   14    7    8 ar    
   15    7    9 ar    
@<TRIPOS>SUBSTRUCTURE
      1 ****           1
@<TRIPOS>SET
DONOR_HYDROGENS      STATIC     ATOMS    <user>   **** ""
1 16
ATOM$RED        STATIC     ATOMS    COLORGROUP SYSTEM
1 16
@<TRIPOS>COMMENT
> <Gold.Version>
2022.2.0

> <Gold.Id.Protein>
3pbl|protein|mol2

> <Gold.Protein.RotatedTorsions>
[ 1303 1298 1297 1294 ] final  -54.67 input  179.99 | X-H torsion
[ 2461 2456 2455 2452 ] final  160.86 input   30.03 | X-H torsion
[ 2515 2510 2509 2506 ] final  117.94 input  -89.99 | X-H torsion
[ 3721 3712 3711 3710 ] final   14.40 input -179.91 | X-H torsion
[ 3841 3832 3831 3830 ] final   98.93 input -179.91 | X-H torsion
[ 3767 3762 3761 3758 ] final  179.60 input  -89.99 | X-H torsion
[ 2472 2467 2466 2463 ] final   65.95 input  -89.97 | X-H torsion

> <Gold.Protein.ActiveResidues>
 VAL82   VAL86   LEU89   PHE106  VAL107  ASP110  VAL111  MET112  CYS114  THR115 
 CYS181  SER182  ILE183  PHE188  VAL189  ILE190  SER192  SER193  SER196  TRP342 
 PHE345  PHE346  HIS349  VAL350  TYR365  THR369  GLY372  TYR373 

> <Gold.Protein.RotatedAtoms>
    3.4559   -9.0529    3.7778 H   0  0  0  0  0  0  0  0  0  0  0  0  # atno 1303 bound_to 1298
    1.7321   -9.0832    8.3658 H   0  0  0  0  0  0  0  0  0  0  0  0  # atno 2461 bound_to 2456
   -4.7395   -4.8334    7.6676 H   0  0  0  0  0  0  0  0  0  0  0  0  # atno 2472 bound_to 2467
    2.0381   -8.1335    6.0576 H   0  0  0  0  0  0  0  0  0  0  0  0  # atno 2515 bound_to 2510
   -2.4701  -18.0183   14.0348 H   0  0  0  0  0  0  0  0  0  0  0  0  # atno 3721 bound_to 3712
   -4.0910  -22.5376   11.5637 H   0  0  0  0  0  0  0  0  0  0  0  0  # atno 3767 bound_to 3762
    2.9311  -20.8799    9.1709 H   0  0  0  0  0  0  0  0  0  0  0  0  # atno 3841 bound_to 3832
    4.8249   -8.8076    4.6333 LP  0  0  0  0  0  0  0  0  0  0  0  0  # atno 4297 bound_to 1298
    4.0817  -10.2609    4.6808 LP  0  0  0  0  0  0  0  0  0  0  0  0  # atno 4298 bound_to 1298
    1.6746   -7.9386    7.2022 LP  0  0  0  0  0  0  0  0  0  0  0  0  # atno 4299 bound_to 2456
    0.3312   -8.7865    7.5803 LP  0  0  0  0  0  0  0  0  0  0  0  0  # atno 4300 bound_to 2456
    2.5547   -7.6509    4.5859 LP  0  0  0  0  0  0  0  0  0  0  0  0  # atno 4301 bound_to 2510
    2.7040   -9.2148    5.0314 LP  0  0  0  0  0  0  0  0  0  0  0  0  # atno 4302 bound_to 2510
   -3.3501  -16.8161   14.6331 LP  0  0  0  0  0  0  0  0  0  0  0  0  # atno 4306 bound_to 3712
   -3.3258  -17.1078   13.0266 LP  0  0  0  0  0  0  0  0  0  0  0  0  # atno 4307 bound_to 3712
    1.4253  -20.3420    9.3101 LP  0  0  0  0  0  0  0  0  0  0  0  0  # atno 4314 bound_to 3832
    2.4181  -19.7439    8.1598 LP  0  0  0  0  0  0  0  0  0  0  0  0  # atno 4315 bound_to 3832
   -4.5750  -23.2794   10.1918 LP  0  0  0  0  0  0  0  0  0  0  0  0  # atno 4318 bound_to 3762
   -5.4612  -22.0580   10.8158 LP  0  0  0  0  0  0  0  0  0  0  0  0  # atno 4319 bound_to 3762
   -3.6896   -5.1528    8.8767 LP  0  0  0  0  0  0  0  0  0  0  0  0  # atno 4320 bound_to 2467
   -5.2878   -5.4072    9.0947 LP  0  0  0  0  0  0  0  0  0  0  0  0  # atno 4321 bound_to 2467

> <Gold.Score>
     Score     S(PLP)   S(hbond)     S(cho)   S(metal)  DE(clash)   DE(tors)     intcor
     31.95     -23.52       2.83       0.00       0.00       0.00       0.03       0.00

> <Gold.PLP.Fitness>
31.9546

> <Gold.PLP.PLP>
-23.5233

> <Gold.PLP.part.hbond>
-3.0000

> <Gold.PLP.part.metal>
0.0000

> <Gold.PLP.part.buried>
-3.8237

> <Gold.PLP.part.nonpolar>
-16.9298

> <Gold.PLP.part.repulsive>
0.0636

> <Gold.PLP.ligand.clash>
0.0000

> <Gold.PLP.ligand.torsion>
0.0328

> <Gold.PLP.Chemscore.Hbond>
2.8320

> <Gold.PLP.Chemscore.CHOScore>
0.0000

> <Gold.PLP.Chemscore.Metal>
0.0000

> <Gold.Chemscore.Hbonds>
donor molecule, donor type, donor heavy atom, donor atom, acceptor molecule, acceptor atom, score
      L1  H     1    16       P1  1227  1.00
      P1  H  2305  2313       L1     9  1.00
      P1  H  3712  3721       L1     8  0.83

> <Gold.PLP.Chemscore.Internal.Correction>
0.0009

