#       Name:                EN300-1231025_i001
#       Creating user name   fsindt
#       Creation time:       Mon Feb 27 18:14:19 2023


#       File generated by GOLD software.
#

@<TRIPOS>MOLECULE
EN300-1231025_i001|acide_1|mol2|268|dock1
    16    15     1
SMALL
USER_CHARGES


@<TRIPOS>ATOM
      1 O1           1.5533 -15.7809  11.7534 O.3            1 <1>                0.0000
      2 C2           0.1671 -15.8328  12.0963 C.3            1 <1>                0.0000
      3 C3          -0.3909 -14.4108  12.1812 C.3            1 <1>                0.0000
      4 C4          -0.4040 -13.7839  10.7856 C.3            1 <1>                0.0000
      5 C5          -1.0947 -12.4851  10.8376 C.1            1 <1>                0.0000
      6 C6          -1.6456 -11.4492  10.8792 C.1            1 <1>                0.0000
      7 C7           0.0047 -16.5167  13.4294 C.2            1 <1>                0.0000
      8 O8           0.5013 -16.0276  14.4299 O.co2          1 <1>                0.0000
      9 O9          -0.6232 -17.5588  13.5075 O.co2          1 <1>               -1.0000
     10 H10         -0.3753 -16.3911  11.3332 H              1 <1>                0.0000
     11 H11         -1.4068 -14.4421  12.5750 H              1 <1>                0.0000
     12 H12          0.2367 -13.8131  12.8421 H              1 <1>                0.0000
     13 H13          0.6204 -13.6371  10.4436 H              1 <1>                0.0000
     14 H14         -0.9264 -14.4458  10.0948 H              1 <1>                0.0000
     15 H15         -2.1384 -10.5227  10.9163 H              1 <1>                0.0000
     16 H16          1.7824 -16.2892  10.9633 H              1 <1>                0.0000
@<TRIPOS>BOND
    1    1    2 1     
    2    1   16 1     
    3    2    3 1     
    4    2    7 1     
    5    2   10 1     
    6    3    4 1     
    7    3   11 1     
    8    3   12 1     
    9    4    5 1     
   10    4   13 1     
   11    4   14 1     
   12    5    6 3     
   13    6   15 1     
   14    7    8 ar    
   15    7    9 ar    
@<TRIPOS>SUBSTRUCTURE
      1 ****           1
@<TRIPOS>SET
DONOR_HYDROGENS      STATIC     ATOMS    <user>   **** ""
1 16
ATOM$RED        STATIC     ATOMS    COLORGROUP SYSTEM
1 16
@<TRIPOS>COMMENT
> <Gold.Version>
2022.2.0

> <Gold.Id.Protein>
3pbl|protein|mol2

> <Gold.Protein.RotatedTorsions>
[ 1303 1298 1297 1294 ] final  -10.64 input  179.99 | X-H torsion
[ 2461 2456 2455 2452 ] final  -10.41 input   30.03 | X-H torsion
[ 2515 2510 2509 2506 ] final -109.83 input  -89.99 | X-H torsion
[ 3721 3712 3711 3710 ] final   47.03 input -179.91 | X-H torsion
[ 3841 3832 3831 3830 ] final  169.73 input -179.91 | X-H torsion
[ 3767 3762 3761 3758 ] final   55.53 input  -89.99 | X-H torsion
[ 2472 2467 2466 2463 ] final -111.78 input  -89.97 | X-H torsion

> <Gold.Protein.ActiveResidues>
 VAL82   VAL86   LEU89   PHE106  VAL107  ASP110  VAL111  MET112  CYS114  THR115 
 CYS181  SER182  ILE183  PHE188  VAL189  ILE190  SER192  SER193  SER196  TRP342 
 PHE345  PHE346  HIS349  VAL350  TYR365  THR369  GLY372  TYR373 

> <Gold.Protein.RotatedAtoms>
    3.3445   -9.7260    3.9615 H   0  0  0  0  0  0  0  0  0  0  0  0  # atno 1303 bound_to 1298
    0.8832   -8.0534    7.0407 H   0  0  0  0  0  0  0  0  0  0  0  0  # atno 2461 bound_to 2456
   -4.3685   -5.4238    9.4191 H   0  0  0  0  0  0  0  0  0  0  0  0  # atno 2472 bound_to 2467
    2.7611   -9.1355    4.8560 H   0  0  0  0  0  0  0  0  0  0  0  0  # atno 2515 bound_to 2510
   -2.5316  -17.9856   13.5533 H   0  0  0  0  0  0  0  0  0  0  0  0  # atno 3721 bound_to 3712
   -4.6310  -23.2578   10.1622 H   0  0  0  0  0  0  0  0  0  0  0  0  # atno 3767 bound_to 3762
    3.0363  -20.1701    8.4703 H   0  0  0  0  0  0  0  0  0  0  0  0  # atno 3841 bound_to 3832
    4.3761   -8.4820    4.1950 LP  0  0  0  0  0  0  0  0  0  0  0  0  # atno 4297 bound_to 1298
    4.6419   -9.9132    4.9351 LP  0  0  0  0  0  0  0  0  0  0  0  0  # atno 4298 bound_to 1298
    0.6994   -9.2332    8.1551 LP  0  0  0  0  0  0  0  0  0  0  0  0  # atno 4299 bound_to 2456
    2.1551   -8.5214    7.9521 LP  0  0  0  0  0  0  0  0  0  0  0  0  # atno 4300 bound_to 2456
    2.0650   -8.3292    6.0934 LP  0  0  0  0  0  0  0  0  0  0  0  0  # atno 4301 bound_to 2510
    2.4705   -7.5341    4.7260 LP  0  0  0  0  0  0  0  0  0  0  0  0  # atno 4302 bound_to 2510
   -3.0920  -17.2321   14.8556 LP  0  0  0  0  0  0  0  0  0  0  0  0  # atno 4306 bound_to 3712
   -3.5129  -16.7296   13.3600 LP  0  0  0  0  0  0  0  0  0  0  0  0  # atno 4307 bound_to 3712
    2.2178  -21.0959    9.4944 LP  0  0  0  0  0  0  0  0  0  0  0  0  # atno 4314 bound_to 3832
    1.5042  -19.8099    8.7848 LP  0  0  0  0  0  0  0  0  0  0  0  0  # atno 4315 bound_to 3832
   -5.4395  -22.0291   10.8719 LP  0  0  0  0  0  0  0  0  0  0  0  0  # atno 4318 bound_to 3762
   -4.0568  -22.5884   11.5366 LP  0  0  0  0  0  0  0  0  0  0  0  0  # atno 4319 bound_to 3762
   -5.4670   -5.1222    8.2492 LP  0  0  0  0  0  0  0  0  0  0  0  0  # atno 4320 bound_to 2467
   -3.8815   -4.8475    7.9710 LP  0  0  0  0  0  0  0  0  0  0  0  0  # atno 4321 bound_to 2467

> <Gold.Score>
     Score     S(PLP)   S(hbond)     S(cho)   S(metal)  DE(clash)   DE(tors)     intcor
     36.66     -28.70       2.69       0.00       0.00       0.00       0.05       0.00

> <Gold.PLP.Fitness>
36.6609

> <Gold.PLP.PLP>
-28.7034

> <Gold.PLP.part.hbond>
-3.0000

> <Gold.PLP.part.metal>
0.0000

> <Gold.PLP.part.buried>
-4.3186

> <Gold.PLP.part.nonpolar>
-21.7418

> <Gold.PLP.part.repulsive>
0.0519

> <Gold.PLP.ligand.clash>
0.0000

> <Gold.PLP.ligand.torsion>
0.0537

> <Gold.PLP.Chemscore.Hbond>
2.6880

> <Gold.PLP.Chemscore.CHOScore>
0.0000

> <Gold.PLP.Chemscore.Metal>
0.0000

> <Gold.Chemscore.Hbonds>
donor molecule, donor type, donor heavy atom, donor atom, acceptor molecule, acceptor atom, score
      L1  H     1    16       P1  1227  1.00
      P1  H  2305  2313       L1     8  1.00
      P1  H  3712  3721       L1     9  0.69

> <Gold.PLP.Chemscore.Internal.Correction>
0.0009

