#       Name:                EN300-1231025_i001
#       Creating user name   fsindt
#       Creation time:       Mon Feb 27 18:14:35 2023


#       File generated by GOLD software.
#

@<TRIPOS>MOLECULE
EN300-1231025_i001|acide_1|mol2|268|dock18
    16    15     1
SMALL
USER_CHARGES


@<TRIPOS>ATOM
      1 O1           0.2703 -12.7781   9.0431 O.3            1 <1>                0.0000
      2 C2          -0.4766 -12.0243  10.0000 C.3            1 <1>                0.0000
      3 C3          -1.8490 -11.6792   9.4186 C.3            1 <1>                0.0000
      4 C4          -2.6798 -10.9452  10.4730 C.3            1 <1>                0.0000
      5 C5          -4.0790 -10.8606  10.0237 C.1            1 <1>                0.0000
      6 C6          -5.1949 -10.7931   9.6653 C.1            1 <1>                0.0000
      7 C7           0.2643 -10.7535  10.3274 C.2            1 <1>                0.0000
      8 O8          -0.1894  -9.9784  11.1520 O.co2          1 <1>                0.0000
      9 O9           1.3175 -10.5004   9.7676 O.co2          1 <1>               -1.0000
     10 H10         -0.6045 -12.6144  10.9076 H              1 <1>                0.0000
     11 H11         -1.7231 -11.0393   8.5452 H              1 <1>                0.0000
     12 H12         -2.3609 -12.5961   9.1264 H              1 <1>                0.0000
     13 H13         -2.6334 -11.4900  11.4159 H              1 <1>                0.0000
     14 H14         -2.2821  -9.9402  10.6141 H              1 <1>                0.0000
     15 H15         -6.1930 -10.7327   9.3447 H              1 <1>                0.0000
     16 H16         -0.2738 -13.3363   8.4708 H              1 <1>                0.0000
@<TRIPOS>BOND
    1    1    2 1     
    2    1   16 1     
    3    2    3 1     
    4    2    7 1     
    5    2   10 1     
    6    3    4 1     
    7    3   11 1     
    8    3   12 1     
    9    4    5 1     
   10    4   13 1     
   11    4   14 1     
   12    5    6 3     
   13    6   15 1     
   14    7    8 ar    
   15    7    9 ar    
@<TRIPOS>SUBSTRUCTURE
      1 ****           1
@<TRIPOS>SET
DONOR_HYDROGENS      STATIC     ATOMS    <user>   **** ""
1 16
ATOM$RED        STATIC     ATOMS    COLORGROUP SYSTEM
1 16
@<TRIPOS>COMMENT
> <Gold.Version>
2022.2.0

> <Gold.Id.Protein>
3pbl|protein|mol2

> <Gold.Protein.RotatedTorsions>
[ 1303 1298 1297 1294 ] final   18.24 input  179.99 | X-H torsion
[ 2461 2456 2455 2452 ] final -177.63 input   30.03 | X-H torsion
[ 2515 2510 2509 2506 ] final  174.42 input  -89.99 | X-H torsion
[ 3721 3712 3711 3710 ] final  120.29 input -179.91 | X-H torsion
[ 3841 3832 3831 3830 ] final  -71.27 input -179.91 | X-H torsion
[ 3767 3762 3761 3758 ] final  148.37 input  -89.99 | X-H torsion
[ 2472 2467 2466 2463 ] final   53.37 input  -89.97 | X-H torsion

> <Gold.Protein.ActiveResidues>
 VAL82   VAL86   LEU89   PHE106  VAL107  ASP110  VAL111  MET112  CYS114  THR115 
 CYS181  SER182  ILE183  PHE188  VAL189  ILE190  SER192  SER193  SER196  TRP342 
 PHE345  PHE346  HIS349  VAL350  TYR365  THR369  GLY372  TYR373 

> <Gold.Protein.RotatedAtoms>
    3.5151  -10.0812    4.2179 H   0  0  0  0  0  0  0  0  0  0  0  0  # atno 1303 bound_to 1298
    1.4137   -9.2293    8.4006 H   0  0  0  0  0  0  0  0  0  0  0  0  # atno 2461 bound_to 2456
   -4.5347   -4.8086    7.6613 H   0  0  0  0  0  0  0  0  0  0  0  0  # atno 2472 bound_to 2467
    2.2865   -8.9754    5.8992 H   0  0  0  0  0  0  0  0  0  0  0  0  # atno 2515 bound_to 2510
   -3.0108  -17.2294   13.0365 H   0  0  0  0  0  0  0  0  0  0  0  0  # atno 3721 bound_to 3712
   -3.9152  -22.9159   11.2745 H   0  0  0  0  0  0  0  0  0  0  0  0  # atno 3767 bound_to 3762
    1.6823  -19.7199    8.9056 H   0  0  0  0  0  0  0  0  0  0  0  0  # atno 3841 bound_to 3832
    3.9826   -8.5407    3.9444 LP  0  0  0  0  0  0  0  0  0  0  0  0  # atno 4297 bound_to 1298
    4.8647   -9.4991    4.9293 LP  0  0  0  0  0  0  0  0  0  0  0  0  # atno 4298 bound_to 1298
    1.9413   -8.0477    7.4043 LP  0  0  0  0  0  0  0  0  0  0  0  0  # atno 4299 bound_to 2456
    0.3828   -8.5314    7.3435 LP  0  0  0  0  0  0  0  0  0  0  0  0  # atno 4300 bound_to 2456
    2.1792   -7.4358    5.3662 LP  0  0  0  0  0  0  0  0  0  0  0  0  # atno 4301 bound_to 2510
    2.8311   -8.5876    4.4096 LP  0  0  0  0  0  0  0  0  0  0  0  0  # atno 4302 bound_to 2510
   -2.6287  -18.1247   14.3134 LP  0  0  0  0  0  0  0  0  0  0  0  0  # atno 4306 bound_to 3712
   -3.4229  -16.7099   14.4988 LP  0  0  0  0  0  0  0  0  0  0  0  0  # atno 4307 bound_to 3712
    3.0384  -20.3200    8.2916 LP  0  0  0  0  0  0  0  0  0  0  0  0  # atno 4314 bound_to 3832
    2.2476  -21.1059    9.4848 LP  0  0  0  0  0  0  0  0  0  0  0  0  # atno 4315 bound_to 3832
   -5.0045  -23.0409   10.0642 LP  0  0  0  0  0  0  0  0  0  0  0  0  # atno 4318 bound_to 3762
   -5.2074  -21.9183   11.2326 LP  0  0  0  0  0  0  0  0  0  0  0  0  # atno 4319 bound_to 3762
   -3.7796   -5.2245    9.0481 LP  0  0  0  0  0  0  0  0  0  0  0  0  # atno 4320 bound_to 2467
   -5.4026   -5.3604    8.9296 LP  0  0  0  0  0  0  0  0  0  0  0  0  # atno 4321 bound_to 2467

> <Gold.Score>
     Score     S(PLP)   S(hbond)     S(cho)   S(metal)  DE(clash)   DE(tors)     intcor
     36.58     -33.67       1.00       0.00       0.00       0.00       0.05       0.00

> <Gold.PLP.Fitness>
36.5843

> <Gold.PLP.PLP>
-33.6743

> <Gold.PLP.part.hbond>
-1.0000

> <Gold.PLP.part.metal>
0.0000

> <Gold.PLP.part.buried>
-3.1962

> <Gold.PLP.part.nonpolar>
-30.0540

> <Gold.PLP.part.repulsive>
0.0587

> <Gold.PLP.ligand.clash>
0.0000

> <Gold.PLP.ligand.torsion>
0.0454

> <Gold.PLP.Chemscore.Hbond>
1.0000

> <Gold.PLP.Chemscore.CHOScore>
0.0000

> <Gold.PLP.Chemscore.Metal>
0.0000

> <Gold.Chemscore.Hbonds>
donor molecule, donor type, donor heavy atom, donor atom, acceptor molecule, acceptor atom, score
      P1  H  2456  2461       L1     9  1.00

> <Gold.PLP.Chemscore.Internal.Correction>
0.0007

