#       Name:                EN300-1231025_i001
#       Creating user name   fsindt
#       Creation time:       Mon Feb 27 18:14:21 2023


#       File generated by GOLD software.
#

@<TRIPOS>MOLECULE
EN300-1231025_i001|acide_1|mol2|268|dock3
    16    15     1
SMALL
USER_CHARGES


@<TRIPOS>ATOM
      1 O1           0.7014 -10.8759   9.2299 O.3            1 <1>                0.0000
      2 C2          -0.2704 -11.6359   8.5090 C.3            1 <1>                0.0000
      3 C3          -1.5543 -11.7366   9.3350 C.3            1 <1>                0.0000
      4 C4          -2.1014 -10.3326   9.6005 C.3            1 <1>                0.0000
      5 C5          -3.5041 -10.4270  10.0366 C.1            1 <1>                0.0000
      6 C6          -4.6229 -10.5023  10.3844 C.1            1 <1>                0.0000
      7 C7           0.2676 -13.0189   8.2461 C.2            1 <1>                0.0000
      8 O8           0.5418 -13.7539   9.1794 O.co2          1 <1>                0.0000
      9 O9           0.4285 -13.4028   7.1001 O.co2          1 <1>               -1.0000
     10 H10         -0.4862 -11.1437   7.5606 H              1 <1>                0.0000
     11 H11         -2.2952 -12.3174   8.7856 H              1 <1>                0.0000
     12 H12         -1.3383 -12.2278  10.2838 H              1 <1>                0.0000
     13 H13         -1.5098  -9.8538  10.3807 H              1 <1>                0.0000
     14 H14         -2.0440  -9.7415   8.6865 H              1 <1>                0.0000
     15 H15         -5.6235 -10.5697  10.6955 H              1 <1>                0.0000
     16 H16          0.8701  -9.9993   8.8580 H              1 <1>                0.0000
@<TRIPOS>BOND
    1    1    2 1     
    2    1   16 1     
    3    2    3 1     
    4    2    7 1     
    5    2   10 1     
    6    3    4 1     
    7    3   11 1     
    8    3   12 1     
    9    4    5 1     
   10    4   13 1     
   11    4   14 1     
   12    5    6 3     
   13    6   15 1     
   14    7    8 ar    
   15    7    9 ar    
@<TRIPOS>SUBSTRUCTURE
      1 ****           1
@<TRIPOS>SET
DONOR_HYDROGENS      STATIC     ATOMS    <user>   **** ""
1 16
ATOM$RED        STATIC     ATOMS    COLORGROUP SYSTEM
1 16
@<TRIPOS>COMMENT
> <Gold.Version>
2022.2.0

> <Gold.Id.Protein>
3pbl|protein|mol2

> <Gold.Protein.RotatedTorsions>
[ 1303 1298 1297 1294 ] final  101.41 input  179.99 | X-H torsion
[ 2461 2456 2455 2452 ] final   52.92 input   30.03 | X-H torsion
[ 2515 2510 2509 2506 ] final  146.96 input  -89.99 | X-H torsion
[ 3721 3712 3711 3710 ] final   93.16 input -179.91 | X-H torsion
[ 3841 3832 3831 3830 ] final  116.68 input -179.91 | X-H torsion
[ 3767 3762 3761 3758 ] final   95.37 input  -89.99 | X-H torsion
[ 2472 2467 2466 2463 ] final  -43.43 input  -89.97 | X-H torsion

> <Gold.Protein.ActiveResidues>
 VAL82   VAL86   LEU89   PHE106  VAL107  ASP110  VAL111  MET112  CYS114  THR115 
 CYS181  SER182  ILE183  PHE188  VAL189  ILE190  SER192  SER193  SER196  TRP342 
 PHE345  PHE346  HIS349  VAL350  TYR365  THR369  GLY372  TYR373 

> <Gold.Protein.RotatedAtoms>
    4.5541  -10.0071    4.9112 H   0  0  0  0  0  0  0  0  0  0  0  0  # atno 1303 bound_to 1298
    1.8343   -7.9888    7.3082 H   0  0  0  0  0  0  0  0  0  0  0  0  # atno 2461 bound_to 2456
   -3.6463   -5.0920    8.7189 H   0  0  0  0  0  0  0  0  0  0  0  0  # atno 2472 bound_to 2467
    2.1294   -8.5965    6.0778 H   0  0  0  0  0  0  0  0  0  0  0  0  # atno 2515 bound_to 2510
   -2.8070  -17.5775   13.0861 H   0  0  0  0  0  0  0  0  0  0  0  0  # atno 3721 bound_to 3712
   -4.1376  -23.3177   10.5694 H   0  0  0  0  0  0  0  0  0  0  0  0  # atno 3767 bound_to 3762
    3.0638  -20.7541    8.9762 H   0  0  0  0  0  0  0  0  0  0  0  0  # atno 3841 bound_to 3832
    3.3308   -9.6085    3.9058 LP  0  0  0  0  0  0  0  0  0  0  0  0  # atno 4297 bound_to 1298
    4.4771   -8.5055    4.2744 LP  0  0  0  0  0  0  0  0  0  0  0  0  # atno 4298 bound_to 1298
    0.3445   -8.6444    7.4430 LP  0  0  0  0  0  0  0  0  0  0  0  0  # atno 4299 bound_to 2456
    1.5592   -9.1748    8.3968 LP  0  0  0  0  0  0  0  0  0  0  0  0  # atno 4300 bound_to 2456
    2.3527   -7.4336    4.9537 LP  0  0  0  0  0  0  0  0  0  0  0  0  # atno 4301 bound_to 2510
    2.8147   -8.9689    4.6434 LP  0  0  0  0  0  0  0  0  0  0  0  0  # atno 4302 bound_to 2510
   -2.7443  -17.8686   14.6638 LP  0  0  0  0  0  0  0  0  0  0  0  0  # atno 4306 bound_to 3712
   -3.5426  -16.5642   14.0911 LP  0  0  0  0  0  0  0  0  0  0  0  0  # atno 4307 bound_to 3712
    1.5402  -20.5762    9.4486 LP  0  0  0  0  0  0  0  0  0  0  0  0  # atno 4314 bound_to 3832
    2.1500  -19.6549    8.2461 LP  0  0  0  0  0  0  0  0  0  0  0  0  # atno 4315 bound_to 3832
   -5.4825  -22.4153   10.3603 LP  0  0  0  0  0  0  0  0  0  0  0  0  # atno 4318 bound_to 3762
   -4.5071  -22.1423   11.6412 LP  0  0  0  0  0  0  0  0  0  0  0  0  # atno 4319 bound_to 3762
   -5.1637   -5.4366    9.2141 LP  0  0  0  0  0  0  0  0  0  0  0  0  # atno 4320 bound_to 2467
   -4.9068   -4.8649    7.7062 LP  0  0  0  0  0  0  0  0  0  0  0  0  # atno 4321 bound_to 2467

> <Gold.Score>
     Score     S(PLP)   S(hbond)     S(cho)   S(metal)  DE(clash)   DE(tors)     intcor
     37.85     -34.99       1.00       0.00       0.00       0.00       0.07       0.00

> <Gold.PLP.Fitness>
37.8499

> <Gold.PLP.PLP>
-34.9922

> <Gold.PLP.part.hbond>
-1.0000

> <Gold.PLP.part.metal>
0.0000

> <Gold.PLP.part.buried>
-4.3225

> <Gold.PLP.part.nonpolar>
-30.0005

> <Gold.PLP.part.repulsive>
0.0541

> <Gold.PLP.ligand.clash>
0.0000

> <Gold.PLP.ligand.torsion>
0.0716

> <Gold.PLP.Chemscore.Hbond>
1.0000

> <Gold.PLP.Chemscore.CHOScore>
0.0000

> <Gold.PLP.Chemscore.Metal>
0.0000

> <Gold.Chemscore.Hbonds>
donor molecule, donor type, donor heavy atom, donor atom, acceptor molecule, acceptor atom, score
      L1  H     1    16       P1  2456  1.00

> <Gold.PLP.Chemscore.Internal.Correction>
0.0009

