#       Name:                EN300-1231025_i001
#       Creating user name   fsindt
#       Creation time:       Mon Feb 27 18:14:27 2023


#       File generated by GOLD software.
#

@<TRIPOS>MOLECULE
EN300-1231025_i001|acide_1|mol2|268|dock10
    16    15     1
SMALL
USER_CHARGES


@<TRIPOS>ATOM
      1 O1          -0.0108 -13.0788  10.2028 O.3            1 <1>                0.0000
      2 C2          -0.1427 -12.1356   9.1376 C.3            1 <1>                0.0000
      3 C3          -1.6029 -11.6929   9.0262 C.3            1 <1>                0.0000
      4 C4          -2.0558 -11.0892  10.3571 C.3            1 <1>                0.0000
      5 C5          -3.4878 -10.7565  10.2829 C.1            1 <1>                0.0000
      6 C6          -4.6299 -10.4911  10.2236 C.1            1 <1>                0.0000
      7 C7           0.2883 -12.7760   7.8433 C.2            1 <1>                0.0000
      8 O8          -0.2674 -13.7870   7.4487 O.co2          1 <1>                0.0000
      9 O9           1.1926 -12.2831   7.1907 O.co2          1 <1>               -1.0000
     10 H10          0.4855 -11.2681   9.3406 H              1 <1>                0.0000
     11 H11         -1.6970 -10.9462   8.2377 H              1 <1>                0.0000
     12 H12         -2.2265 -12.5543   8.7870 H              1 <1>                0.0000
     13 H13         -1.8914 -11.8102  11.1577 H              1 <1>                0.0000
     14 H14         -1.4826 -10.1844  10.5595 H              1 <1>                0.0000
     15 H15         -5.6514 -10.2538  10.1706 H              1 <1>                0.0000
     16 H16          0.6940 -13.7272  10.0691 H              1 <1>                0.0000
@<TRIPOS>BOND
    1    1    2 1     
    2    1   16 1     
    3    2    3 1     
    4    2    7 1     
    5    2   10 1     
    6    3    4 1     
    7    3   11 1     
    8    3   12 1     
    9    4    5 1     
   10    4   13 1     
   11    4   14 1     
   12    5    6 3     
   13    6   15 1     
   14    7    8 ar    
   15    7    9 ar    
@<TRIPOS>SUBSTRUCTURE
      1 ****           1
@<TRIPOS>SET
DONOR_HYDROGENS      STATIC     ATOMS    <user>   **** ""
1 16
ATOM$RED        STATIC     ATOMS    COLORGROUP SYSTEM
1 16
@<TRIPOS>COMMENT
> <Gold.Version>
2022.2.0

> <Gold.Id.Protein>
3pbl|protein|mol2

> <Gold.Protein.RotatedTorsions>
[ 1303 1298 1297 1294 ] final  152.25 input  179.99 | X-H torsion
[ 2461 2456 2455 2452 ] final  101.52 input   30.03 | X-H torsion
[ 2515 2510 2509 2506 ] final  -71.59 input  -89.99 | X-H torsion
[ 3721 3712 3711 3710 ] final  120.63 input -179.91 | X-H torsion
[ 3841 3832 3831 3830 ] final  154.85 input -179.91 | X-H torsion
[ 3767 3762 3761 3758 ] final  -93.43 input  -89.99 | X-H torsion
[ 2472 2467 2466 2463 ] final   74.97 input  -89.97 | X-H torsion

> <Gold.Protein.ActiveResidues>
 VAL82   VAL86   LEU89   PHE106  VAL107  ASP110  VAL111  MET112  CYS114  THR115 
 CYS181  SER182  ILE183  PHE188  VAL189  ILE190  SER192  SER193  SER196  TRP342 
 PHE345  PHE346  HIS349  VAL350  TYR365  THR369  GLY372  TYR373 

> <Gold.Protein.RotatedAtoms>
    4.9074   -9.2799    4.8746 H   0  0  0  0  0  0  0  0  0  0  0  0  # atno 1303 bound_to 1298
    2.1612   -8.4265    7.8596 H   0  0  0  0  0  0  0  0  0  0  0  0  # atno 2461 bound_to 2456
   -4.8821   -4.8601    7.6982 H   0  0  0  0  0  0  0  0  0  0  0  0  # atno 2472 bound_to 2467
    2.8354   -8.6791    4.4467 H   0  0  0  0  0  0  0  0  0  0  0  0  # atno 2515 bound_to 2510
   -3.0133  -17.2250   13.0371 H   0  0  0  0  0  0  0  0  0  0  0  0  # atno 3721 bound_to 3712
   -5.1873  -21.9157   11.2539 H   0  0  0  0  0  0  0  0  0  0  0  0  # atno 3767 bound_to 3762
    3.1103  -20.3483    8.5841 H   0  0  0  0  0  0  0  0  0  0  0  0  # atno 3841 bound_to 3832
    3.6565  -10.1944    4.3595 LP  0  0  0  0  0  0  0  0  0  0  0  0  # atno 4297 bound_to 1298
    3.7979   -8.6470    3.8573 LP  0  0  0  0  0  0  0  0  0  0  0  0  # atno 4298 bound_to 1298
    0.7689   -8.1167    7.0640 LP  0  0  0  0  0  0  0  0  0  0  0  0  # atno 4299 bound_to 2456
    0.8079   -9.2649    8.2246 LP  0  0  0  0  0  0  0  0  0  0  0  0  # atno 4300 bound_to 2456
    2.2477   -8.9025    5.9535 LP  0  0  0  0  0  0  0  0  0  0  0  0  # atno 4301 bound_to 2510
    2.2135   -7.4173    5.2755 LP  0  0  0  0  0  0  0  0  0  0  0  0  # atno 4302 bound_to 2510
   -2.6279  -18.1270   14.3082 LP  0  0  0  0  0  0  0  0  0  0  0  0  # atno 4306 bound_to 3712
   -3.4208  -16.7128   14.5033 LP  0  0  0  0  0  0  0  0  0  0  0  0  # atno 4307 bound_to 3712
    1.9962  -20.9952    9.5414 LP  0  0  0  0  0  0  0  0  0  0  0  0  # atno 4314 bound_to 3832
    1.6402  -19.7047    8.6063 LP  0  0  0  0  0  0  0  0  0  0  0  0  # atno 4315 bound_to 3832
   -3.9125  -22.9364   11.2535 LP  0  0  0  0  0  0  0  0  0  0  0  0  # atno 4318 bound_to 3762
   -5.0278  -23.0226   10.0638 LP  0  0  0  0  0  0  0  0  0  0  0  0  # atno 4319 bound_to 3762
   -3.6509   -5.1006    8.7435 LP  0  0  0  0  0  0  0  0  0  0  0  0  # atno 4320 bound_to 2467
   -5.1839   -5.4328    9.1973 LP  0  0  0  0  0  0  0  0  0  0  0  0  # atno 4321 bound_to 2467

> <Gold.Score>
     Score     S(PLP)   S(hbond)     S(cho)   S(metal)  DE(clash)   DE(tors)     intcor
     33.45     -33.47       0.00       0.00       0.00       0.00       0.01       0.00

> <Gold.PLP.Fitness>
33.4466

> <Gold.PLP.PLP>
-33.4741

> <Gold.PLP.part.hbond>
0.0000

> <Gold.PLP.part.metal>
0.0000

> <Gold.PLP.part.buried>
-4.5320

> <Gold.PLP.part.nonpolar>
-29.2045

> <Gold.PLP.part.repulsive>
0.0560

> <Gold.PLP.ligand.clash>
0.0000

> <Gold.PLP.ligand.torsion>
0.0142

> <Gold.PLP.Chemscore.Hbond>
0.0000

> <Gold.PLP.Chemscore.CHOScore>
0.0000

> <Gold.PLP.Chemscore.Metal>
0.0000

> <Gold.PLP.Chemscore.Internal.Correction>
0.0009

