#       Name:                EN300-1231025_i001
#       Creating user name   fsindt
#       Creation time:       Mon Feb 27 18:14:30 2023


#       File generated by GOLD software.
#

@<TRIPOS>MOLECULE
EN300-1231025_i001|acide_1|mol2|268|dock13
    16    15     1
SMALL
USER_CHARGES


@<TRIPOS>ATOM
      1 O1          -0.1502 -13.4849  10.1542 O.3            1 <1>                0.0000
      2 C2          -0.4982 -12.0990  10.1578 C.3            1 <1>                0.0000
      3 C3          -1.8848 -11.9197   9.5366 C.3            1 <1>                0.0000
      4 C4          -2.5124 -10.6243  10.0551 C.3            1 <1>                0.0000
      5 C5          -3.9786 -10.7200   9.9674 C.1            1 <1>                0.0000
      6 C6          -5.1481 -10.7964   9.8974 C.1            1 <1>                0.0000
      7 C7           0.5156 -11.3244   9.3556 C.2            1 <1>                0.0000
      8 O8           0.6194 -11.5165   8.1561 O.co2          1 <1>                0.0000
      9 O9           1.2319 -10.5057   9.9062 O.co2          1 <1>               -1.0000
     10 H10         -0.5089 -11.7297  11.1833 H              1 <1>                0.0000
     11 H11         -1.7932 -11.8702   8.4516 H              1 <1>                0.0000
     12 H12         -2.5172 -12.7645   9.8096 H              1 <1>                0.0000
     13 H13         -2.2200 -10.4692  11.0936 H              1 <1>                0.0000
     14 H14         -2.1662  -9.7856   9.4510 H              1 <1>                0.0000
     15 H15         -6.1940 -10.8646   9.8349 H              1 <1>                0.0000
     16 H16          0.0587 -13.8358   9.2777 H              1 <1>                0.0000
@<TRIPOS>BOND
    1    1    2 1     
    2    1   16 1     
    3    2    3 1     
    4    2    7 1     
    5    2   10 1     
    6    3    4 1     
    7    3   11 1     
    8    3   12 1     
    9    4    5 1     
   10    4   13 1     
   11    4   14 1     
   12    5    6 3     
   13    6   15 1     
   14    7    8 ar    
   15    7    9 ar    
@<TRIPOS>SUBSTRUCTURE
      1 ****           1
@<TRIPOS>SET
DONOR_HYDROGENS      STATIC     ATOMS    <user>   **** ""
1 16
ATOM$RED        STATIC     ATOMS    COLORGROUP SYSTEM
1 16
@<TRIPOS>COMMENT
> <Gold.Version>
2022.2.0

> <Gold.Id.Protein>
3pbl|protein|mol2

> <Gold.Protein.RotatedTorsions>
[ 1303 1298 1297 1294 ] final -102.57 input  179.99 | X-H torsion
[ 2461 2456 2455 2452 ] final  177.34 input   30.03 | X-H torsion
[ 2515 2510 2509 2506 ] final   -4.87 input  -89.99 | X-H torsion
[ 3721 3712 3711 3710 ] final    7.09 input -179.91 | X-H torsion
[ 3841 3832 3831 3830 ] final -109.06 input -179.91 | X-H torsion
[ 3767 3762 3761 3758 ] final   76.35 input  -89.99 | X-H torsion
[ 2472 2467 2466 2463 ] final   21.53 input  -89.97 | X-H torsion

> <Gold.Protein.ActiveResidues>
 VAL82   VAL86   LEU89   PHE106  VAL107  ASP110  VAL111  MET112  CYS114  THR115 
 CYS181  SER182  ILE183  PHE188  VAL189  ILE190  SER192  SER193  SER196  TRP342 
 PHE345  PHE346  HIS349  VAL350  TYR365  THR369  GLY372  TYR373 

> <Gold.Protein.RotatedAtoms>
    3.9933   -8.5362    3.9507 H   0  0  0  0  0  0  0  0  0  0  0  0  # atno 1303 bound_to 1298
    1.4921   -9.2024    8.4010 H   0  0  0  0  0  0  0  0  0  0  0  0  # atno 2461 bound_to 2456
   -4.0459   -4.8158    7.8306 H   0  0  0  0  0  0  0  0  0  0  0  0  # atno 2472 bound_to 2467
    2.5735   -7.6825    4.5579 H   0  0  0  0  0  0  0  0  0  0  0  0  # atno 2515 bound_to 2510
   -2.4752  -17.9926   14.1422 H   0  0  0  0  0  0  0  0  0  0  0  0  # atno 3721 bound_to 3712
   -4.3523  -23.3312   10.3440 H   0  0  0  0  0  0  0  0  0  0  0  0  # atno 3767 bound_to 3762
    2.0787  -19.5796    8.5346 H   0  0  0  0  0  0  0  0  0  0  0  0  # atno 3841 bound_to 3832
    4.8608   -9.5117    4.9315 LP  0  0  0  0  0  0  0  0  0  0  0  0  # atno 4297 bound_to 1298
    3.5082  -10.0737    4.2096 LP  0  0  0  0  0  0  0  0  0  0  0  0  # atno 4298 bound_to 1298
    1.8864   -8.0144    7.3519 LP  0  0  0  0  0  0  0  0  0  0  0  0  # atno 4299 bound_to 2456
    0.3594   -8.5916    7.3954 LP  0  0  0  0  0  0  0  0  0  0  0  0  # atno 4300 bound_to 2456
    2.6890   -9.2274    5.0734 LP  0  0  0  0  0  0  0  0  0  0  0  0  # atno 4301 bound_to 2510
    2.0341   -8.0895    6.0443 LP  0  0  0  0  0  0  0  0  0  0  0  0  # atno 4302 bound_to 2510
   -3.3992  -16.7437   14.5477 LP  0  0  0  0  0  0  0  0  0  0  0  0  # atno 4306 bound_to 3712
   -3.2708  -17.2099   12.9879 LP  0  0  0  0  0  0  0  0  0  0  0  0  # atno 4307 bound_to 3712
    3.1108  -20.8005    8.6769 LP  0  0  0  0  0  0  0  0  0  0  0  0  # atno 4314 bound_to 3832
    1.7173  -20.7873    9.5280 LP  0  0  0  0  0  0  0  0  0  0  0  0  # atno 4315 bound_to 3832
   -5.5097  -22.2055   10.5890 LP  0  0  0  0  0  0  0  0  0  0  0  0  # atno 4318 bound_to 3762
   -4.2652  -22.3386   11.6378 LP  0  0  0  0  0  0  0  0  0  0  0  0  # atno 4319 bound_to 3762
   -4.1633   -5.3788    9.3589 LP  0  0  0  0  0  0  0  0  0  0  0  0  # atno 4320 bound_to 2467
   -5.5076   -5.1989    8.4495 LP  0  0  0  0  0  0  0  0  0  0  0  0  # atno 4321 bound_to 2467

> <Gold.Score>
     Score     S(PLP)   S(hbond)     S(cho)   S(metal)  DE(clash)   DE(tors)     intcor
     35.30     -33.36       0.94       0.00       0.00       0.00       0.45       0.00

> <Gold.PLP.Fitness>
35.2990

> <Gold.PLP.PLP>
-33.3648

> <Gold.PLP.part.hbond>
-1.6777

> <Gold.PLP.part.metal>
0.0000

> <Gold.PLP.part.buried>
-3.0285

> <Gold.PLP.part.nonpolar>
-28.9749

> <Gold.PLP.part.repulsive>
0.0000

> <Gold.PLP.ligand.clash>
0.0000

> <Gold.PLP.ligand.torsion>
0.4493

> <Gold.PLP.Chemscore.Hbond>
0.9440

> <Gold.PLP.Chemscore.CHOScore>
0.0000

> <Gold.PLP.Chemscore.Metal>
0.0000

> <Gold.Chemscore.Hbonds>
donor molecule, donor type, donor heavy atom, donor atom, acceptor molecule, acceptor atom, score
      P1  H  2456  2461       L1     9  0.94

> <Gold.PLP.Chemscore.Internal.Correction>
0.0009

