#       Name:                EN300-1231025_i001
#       Creating user name   fsindt
#       Creation time:       Mon Feb 27 18:14:36 2023


#       File generated by GOLD software.
#

@<TRIPOS>MOLECULE
EN300-1231025_i001|acide_1|mol2|268|dock19
    16    15     1
SMALL
USER_CHARGES


@<TRIPOS>ATOM
      1 O1          -0.0882 -13.8386   9.8474 O.3            1 <1>                0.0000
      2 C2           0.2513 -12.4539   9.7518 C.3            1 <1>                0.0000
      3 C3          -0.8973 -11.6079  10.3048 C.3            1 <1>                0.0000
      4 C4          -2.0509 -11.5948   9.2999 C.3            1 <1>                0.0000
      5 C5          -3.2377 -10.9868   9.9232 C.1            1 <1>                0.0000
      6 C6          -4.1842 -10.5018  10.4204 C.1            1 <1>                0.0000
      7 C7           0.4907 -12.0938   8.3082 C.2            1 <1>                0.0000
      8 O8           0.4388 -12.9565   7.4480 O.co2          1 <1>                0.0000
      9 O9           0.7362 -10.9400   8.0003 O.co2          1 <1>               -1.0000
     10 H10          1.1555 -12.2608  10.3292 H              1 <1>                0.0000
     11 H11         -1.2413 -12.0338  11.2473 H              1 <1>                0.0000
     12 H12         -0.5497 -10.5884  10.4722 H              1 <1>                0.0000
     13 H13         -1.7629 -11.0139   8.4237 H              1 <1>                0.0000
     14 H14         -2.2820 -12.6165   8.9986 H              1 <1>                0.0000
     15 H15         -5.0308 -10.0681  10.8650 H              1 <1>                0.0000
     16 H16          0.5215 -14.4263   9.3805 H              1 <1>                0.0000
@<TRIPOS>BOND
    1    1    2 1     
    2    1   16 1     
    3    2    3 1     
    4    2    7 1     
    5    2   10 1     
    6    3    4 1     
    7    3   11 1     
    8    3   12 1     
    9    4    5 1     
   10    4   13 1     
   11    4   14 1     
   12    5    6 3     
   13    6   15 1     
   14    7    8 ar    
   15    7    9 ar    
@<TRIPOS>SUBSTRUCTURE
      1 ****           1
@<TRIPOS>SET
DONOR_HYDROGENS      STATIC     ATOMS    <user>   **** ""
1 16
ATOM$RED        STATIC     ATOMS    COLORGROUP SYSTEM
1 16
@<TRIPOS>COMMENT
> <Gold.Version>
2022.2.0

> <Gold.Id.Protein>
3pbl|protein|mol2

> <Gold.Protein.RotatedTorsions>
[ 1303 1298 1297 1294 ] final -167.29 input  179.99 | X-H torsion
[ 2461 2456 2455 2452 ] final -146.88 input   30.03 | X-H torsion
[ 2515 2510 2509 2506 ] final   50.89 input  -89.99 | X-H torsion
[ 3721 3712 3711 3710 ] final  152.32 input -179.91 | X-H torsion
[ 3841 3832 3831 3830 ] final -119.66 input -179.91 | X-H torsion
[ 3767 3762 3761 3758 ] final  130.07 input  -89.99 | X-H torsion
[ 2472 2467 2466 2463 ] final  -93.86 input  -89.97 | X-H torsion

> <Gold.Protein.ActiveResidues>
 VAL82   VAL86   LEU89   PHE106  VAL107  ASP110  VAL111  MET112  CYS114  THR115 
 CYS181  SER182  ILE183  PHE188  VAL189  ILE190  SER192  SER193  SER196  TRP342 
 PHE345  PHE346  HIS349  VAL350  TYR365  THR369  GLY372  TYR373 

> <Gold.Protein.RotatedAtoms>
    4.7722   -8.7227    4.5644 H   0  0  0  0  0  0  0  0  0  0  0  0  # atno 1303 bound_to 1298
    0.9301   -9.2841    8.2865 H   0  0  0  0  0  0  0  0  0  0  0  0  # atno 2461 bound_to 2456
   -4.0966   -5.3608    9.3273 H   0  0  0  0  0  0  0  0  0  0  0  0  # atno 2472 bound_to 2467
    2.1993   -7.4241    5.3131 H   0  0  0  0  0  0  0  0  0  0  0  0  # atno 2515 bound_to 2510
   -3.2181  -16.8394   13.2193 H   0  0  0  0  0  0  0  0  0  0  0  0  # atno 3721 bound_to 3712
   -3.9185  -23.1047   11.0416 H   0  0  0  0  0  0  0  0  0  0  0  0  # atno 3767 bound_to 3762
    2.2192  -19.5927    8.4593 H   0  0  0  0  0  0  0  0  0  0  0  0  # atno 3841 bound_to 3832
    4.1834  -10.2354    4.7415 LP  0  0  0  0  0  0  0  0  0  0  0  0  # atno 4297 bound_to 1298
    3.4064   -9.1634    3.7856 LP  0  0  0  0  0  0  0  0  0  0  0  0  # atno 4298 bound_to 1298
    2.1478   -8.3316    7.7600 LP  0  0  0  0  0  0  0  0  0  0  0  0  # atno 4299 bound_to 2456
    0.6598   -8.1927    7.1019 LP  0  0  0  0  0  0  0  0  0  0  0  0  # atno 4300 bound_to 2456
    2.8342   -8.6419    4.4301 LP  0  0  0  0  0  0  0  0  0  0  0  0  # atno 4301 bound_to 2510
    2.2634   -8.9336    5.9321 LP  0  0  0  0  0  0  0  0  0  0  0  0  # atno 4302 bound_to 2510
   -2.6228  -18.2158   13.7930 LP  0  0  0  0  0  0  0  0  0  0  0  0  # atno 4306 bound_to 3712
   -3.1896  -17.0691   14.8081 LP  0  0  0  0  0  0  0  0  0  0  0  0  # atno 4307 bound_to 3712
    3.0644  -20.9124    8.8058 LP  0  0  0  0  0  0  0  0  0  0  0  0  # atno 4314 bound_to 3832
    1.6014  -20.6604    9.4861 LP  0  0  0  0  0  0  0  0  0  0  0  0  # atno 4315 bound_to 3832
   -5.2236  -22.8391   10.0966 LP  0  0  0  0  0  0  0  0  0  0  0  0  # atno 4318 bound_to 3762
   -4.9849  -21.9315   11.4330 LP  0  0  0  0  0  0  0  0  0  0  0  0  # atno 4319 bound_to 3762
   -5.5100   -5.2249    8.5210 LP  0  0  0  0  0  0  0  0  0  0  0  0  # atno 4320 bound_to 2467
   -4.1101   -4.8078    7.7910 LP  0  0  0  0  0  0  0  0  0  0  0  0  # atno 4321 bound_to 2467

> <Gold.Score>
     Score     S(PLP)   S(hbond)     S(cho)   S(metal)  DE(clash)   DE(tors)     intcor
     34.17     -31.50       0.99       0.00       0.00       0.00       0.15       0.00

> <Gold.PLP.Fitness>
34.1736

> <Gold.PLP.PLP>
-31.4974

> <Gold.PLP.part.hbond>
-1.0000

> <Gold.PLP.part.metal>
0.0000

> <Gold.PLP.part.buried>
-3.9807

> <Gold.PLP.part.nonpolar>
-27.4992

> <Gold.PLP.part.repulsive>
0.0053

> <Gold.PLP.ligand.clash>
0.0000

> <Gold.PLP.ligand.torsion>
0.1503

> <Gold.PLP.Chemscore.Hbond>
0.9920

> <Gold.PLP.Chemscore.CHOScore>
0.0000

> <Gold.PLP.Chemscore.Metal>
0.0000

> <Gold.Chemscore.Hbonds>
donor molecule, donor type, donor heavy atom, donor atom, acceptor molecule, acceptor atom, score
      P1  H  2456  2461       L1     9  0.99

> <Gold.PLP.Chemscore.Internal.Correction>
0.0007

