#       Name:                EN300-1231025_i001
#       Creating user name   fsindt
#       Creation time:       Mon Feb 27 18:14:26 2023


#       File generated by GOLD software.
#

@<TRIPOS>MOLECULE
EN300-1231025_i001|acide_1|mol2|268|dock9
    16    15     1
SMALL
USER_CHARGES


@<TRIPOS>ATOM
      1 O1          -0.9130 -12.0846  11.3924 O.3            1 <1>                0.0000
      2 C2          -0.5656 -11.1375  10.3804 C.3            1 <1>                0.0000
      3 C3          -1.8251 -10.7194   9.6192 C.3            1 <1>                0.0000
      4 C4          -2.9018 -10.2835  10.6150 C.3            1 <1>                0.0000
      5 C5          -4.2329 -10.5602  10.0508 C.1            1 <1>                0.0000
      6 C6          -5.2945 -10.7808   9.6008 C.1            1 <1>                0.0000
      7 C7           0.4158 -11.7629   9.4228 C.2            1 <1>                0.0000
      8 O8           0.7904 -12.9101   9.5966 O.co2          1 <1>                0.0000
      9 O9           0.8350 -11.1217   8.4743 O.co2          1 <1>               -1.0000
     10 H10         -0.1129 -10.2606  10.8434 H              1 <1>                0.0000
     11 H11         -1.5885  -9.8894   8.9534 H              1 <1>                0.0000
     12 H12         -2.1920 -11.5620   9.0331 H              1 <1>                0.0000
     13 H13         -2.7801 -10.8361  11.5466 H              1 <1>                0.0000
     14 H14         -2.8049  -9.2156  10.8106 H              1 <1>                0.0000
     15 H15         -6.2441 -10.9782   9.1983 H              1 <1>                0.0000
     16 H16         -1.2506 -12.9226  11.0477 H              1 <1>                0.0000
@<TRIPOS>BOND
    1    1    2 1     
    2    1   16 1     
    3    2    3 1     
    4    2    7 1     
    5    2   10 1     
    6    3    4 1     
    7    3   11 1     
    8    3   12 1     
    9    4    5 1     
   10    4   13 1     
   11    4   14 1     
   12    5    6 3     
   13    6   15 1     
   14    7    8 ar    
   15    7    9 ar    
@<TRIPOS>SUBSTRUCTURE
      1 ****           1
@<TRIPOS>SET
DONOR_HYDROGENS      STATIC     ATOMS    <user>   **** ""
1 16
ATOM$RED        STATIC     ATOMS    COLORGROUP SYSTEM
1 16
@<TRIPOS>COMMENT
> <Gold.Version>
2022.2.0

> <Gold.Id.Protein>
3pbl|protein|mol2

> <Gold.Protein.RotatedTorsions>
[ 1303 1298 1297 1294 ] final -101.16 input  179.99 | X-H torsion
[ 2461 2456 2455 2452 ] final -143.24 input   30.03 | X-H torsion
[ 2515 2510 2509 2506 ] final   96.74 input  -89.99 | X-H torsion
[ 3721 3712 3711 3710 ] final  155.24 input -179.91 | X-H torsion
[ 3841 3832 3831 3830 ] final -129.97 input -179.91 | X-H torsion
[ 3767 3762 3761 3758 ] final -105.71 input  -89.99 | X-H torsion
[ 2472 2467 2466 2463 ] final  -18.68 input  -89.97 | X-H torsion

> <Gold.Protein.ActiveResidues>
 VAL82   VAL86   LEU89   PHE106  VAL107  ASP110  VAL111  MET112  CYS114  THR115 
 CYS181  SER182  ILE183  PHE188  VAL189  ILE190  SER192  SER193  SER196  TRP342 
 PHE345  PHE346  HIS349  VAL350  TYR365  THR369  GLY372  TYR373 

> <Gold.Protein.RotatedAtoms>
    3.9742   -8.5444    3.9406 H   0  0  0  0  0  0  0  0  0  0  0  0  # atno 1303 bound_to 1298
    0.8761   -9.2776    8.2612 H   0  0  0  0  0  0  0  0  0  0  0  0  # atno 2461 bound_to 2456
   -3.6692   -4.9575    8.3386 H   0  0  0  0  0  0  0  0  0  0  0  0  # atno 2472 bound_to 2467
    2.0336   -7.8206    5.9083 H   0  0  0  0  0  0  0  0  0  0  0  0  # atno 2515 bound_to 2510
   -3.2330  -16.8090   13.2477 H   0  0  0  0  0  0  0  0  0  0  0  0  # atno 3721 bound_to 3712
   -5.0393  -21.9214   11.3909 H   0  0  0  0  0  0  0  0  0  0  0  0  # atno 3767 bound_to 3762
    2.3601  -19.6275    8.4032 H   0  0  0  0  0  0  0  0  0  0  0  0  # atno 3841 bound_to 3832
    4.8675   -9.4899    4.9276 LP  0  0  0  0  0  0  0  0  0  0  0  0  # atno 4297 bound_to 1298
    3.5206  -10.0873    4.2235 LP  0  0  0  0  0  0  0  0  0  0  0  0  # atno 4298 bound_to 1298
    2.1559   -8.3722    7.8034 LP  0  0  0  0  0  0  0  0  0  0  0  0  # atno 4299 bound_to 2456
    0.7057   -8.1586    7.0838 LP  0  0  0  0  0  0  0  0  0  0  0  0  # atno 4300 bound_to 2456
    2.6855   -7.9228    4.4149 LP  0  0  0  0  0  0  0  0  0  0  0  0  # atno 4301 bound_to 2510
    2.5777   -9.2559    5.3518 LP  0  0  0  0  0  0  0  0  0  0  0  0  # atno 4302 bound_to 2510
   -2.6296  -18.2113   13.7448 LP  0  0  0  0  0  0  0  0  0  0  0  0  # atno 4306 bound_to 3712
   -3.1655  -17.1087   14.8236 LP  0  0  0  0  0  0  0  0  0  0  0  0  # atno 4307 bound_to 3712
    2.9929  -21.0043    8.9324 LP  0  0  0  0  0  0  0  0  0  0  0  0  # atno 4314 bound_to 3832
    1.5102  -20.5283    9.4242 LP  0  0  0  0  0  0  0  0  0  0  0  0  # atno 4315 bound_to 3832
   -3.9111  -23.0652   11.0983 LP  0  0  0  0  0  0  0  0  0  0  0  0  # atno 4318 bound_to 3762
   -5.1771  -22.8882   10.0821 LP  0  0  0  0  0  0  0  0  0  0  0  0  # atno 4319 bound_to 3762
   -4.8047   -5.4632    9.3976 LP  0  0  0  0  0  0  0  0  0  0  0  0  # atno 4320 bound_to 2467
   -5.2428   -4.9728    7.9029 LP  0  0  0  0  0  0  0  0  0  0  0  0  # atno 4321 bound_to 2467

> <Gold.Score>
     Score     S(PLP)   S(hbond)     S(cho)   S(metal)  DE(clash)   DE(tors)     intcor
     37.03     -34.47       1.00       0.00       0.00       0.00       0.22       0.00

> <Gold.PLP.Fitness>
37.0322

> <Gold.PLP.PLP>
-34.4742

> <Gold.PLP.part.hbond>
-1.0000

> <Gold.PLP.part.metal>
0.0000

> <Gold.PLP.part.buried>
-3.2976

> <Gold.PLP.part.nonpolar>
-30.2358

> <Gold.PLP.part.repulsive>
0.0000

> <Gold.PLP.ligand.clash>
0.0000

> <Gold.PLP.ligand.torsion>
0.2215

> <Gold.PLP.Chemscore.Hbond>
1.0000

> <Gold.PLP.Chemscore.CHOScore>
0.0000

> <Gold.PLP.Chemscore.Metal>
0.0000

> <Gold.Chemscore.Hbonds>
donor molecule, donor type, donor heavy atom, donor atom, acceptor molecule, acceptor atom, score
      P1  H  2456  2461       L1     9  1.00

> <Gold.PLP.Chemscore.Internal.Correction>
0.0009

