#       Name:                EN300-1231025_i001
#       Creating user name   fsindt
#       Creation time:       Mon Feb 27 18:14:28 2023


#       File generated by GOLD software.
#

@<TRIPOS>MOLECULE
EN300-1231025_i001|acide_1|mol2|268|dock11
    16    15     1
SMALL
USER_CHARGES


@<TRIPOS>ATOM
      1 O1           0.8403 -11.0486   9.0139 O.3            1 <1>                0.0000
      2 C2          -0.3649 -11.8043   9.1498 C.3            1 <1>                0.0000
      3 C3          -1.4329 -10.9436   9.8274 C.3            1 <1>                0.0000
      4 C4          -2.8126 -11.5599   9.5870 C.3            1 <1>                0.0000
      5 C5          -3.8547 -10.5786   9.9302 C.1            1 <1>                0.0000
      6 C6          -4.6859  -9.7960  10.2040 C.1            1 <1>                0.0000
      7 C7          -0.0988 -13.0277   9.9887 C.2            1 <1>                0.0000
      8 O8          -0.6994 -13.1902  11.0372 O.co2          1 <1>                0.0000
      9 O9           0.7171 -13.8548   9.6189 O.co2          1 <1>               -1.0000
     10 H10         -0.7156 -12.1093   8.1638 H              1 <1>                0.0000
     11 H11         -1.2370 -10.8980  10.8987 H              1 <1>                0.0000
     12 H12         -1.4069  -9.9370   9.4101 H              1 <1>                0.0000
     13 H13         -2.9079 -11.8391   8.5378 H              1 <1>                0.0000
     14 H14         -2.9284 -12.4461  10.2110 H              1 <1>                0.0000
     15 H15         -5.4294  -9.0961  10.4488 H              1 <1>                0.0000
     16 H16          1.5025 -11.4632   8.4441 H              1 <1>                0.0000
@<TRIPOS>BOND
    1    1    2 1     
    2    1   16 1     
    3    2    3 1     
    4    2    7 1     
    5    2   10 1     
    6    3    4 1     
    7    3   11 1     
    8    3   12 1     
    9    4    5 1     
   10    4   13 1     
   11    4   14 1     
   12    5    6 3     
   13    6   15 1     
   14    7    8 ar    
   15    7    9 ar    
@<TRIPOS>SUBSTRUCTURE
      1 ****           1
@<TRIPOS>SET
DONOR_HYDROGENS      STATIC     ATOMS    <user>   **** ""
1 16
ATOM$RED        STATIC     ATOMS    COLORGROUP SYSTEM
1 16
@<TRIPOS>COMMENT
> <Gold.Version>
2022.2.0

> <Gold.Id.Protein>
3pbl|protein|mol2

> <Gold.Protein.RotatedTorsions>
[ 1303 1298 1297 1294 ] final   75.88 input  179.99 | X-H torsion
[ 2461 2456 2455 2452 ] final -132.77 input   30.03 | X-H torsion
[ 2515 2510 2509 2506 ] final -146.85 input  -89.99 | X-H torsion
[ 3721 3712 3711 3710 ] final    2.98 input -179.91 | X-H torsion
[ 3841 3832 3831 3830 ] final  -74.19 input -179.91 | X-H torsion
[ 3767 3762 3761 3758 ] final   96.88 input  -89.99 | X-H torsion
[ 2472 2467 2466 2463 ] final  -49.71 input  -89.97 | X-H torsion

> <Gold.Protein.ActiveResidues>
 VAL82   VAL86   LEU89   PHE106  VAL107  ASP110  VAL111  MET112  CYS114  THR115 
 CYS181  SER182  ILE183  PHE188  VAL189  ILE190  SER192  SER193  SER196  TRP342 
 PHE345  PHE346  HIS349  VAL350  TYR365  THR369  GLY372  TYR373 

> <Gold.Protein.RotatedAtoms>
    4.2267  -10.2196    4.7661 H   0  0  0  0  0  0  0  0  0  0  0  0  # atno 1303 bound_to 1298
    0.7300   -9.2439    8.1765 H   0  0  0  0  0  0  0  0  0  0  0  0  # atno 2461 bound_to 2456
   -3.6680   -5.1284    8.8132 H   0  0  0  0  0  0  0  0  0  0  0  0  # atno 2472 bound_to 2467
    2.5540   -9.2500    5.4055 H   0  0  0  0  0  0  0  0  0  0  0  0  # atno 2515 bound_to 2510
   -2.4812  -17.9730   14.2008 H   0  0  0  0  0  0  0  0  0  0  0  0  # atno 3721 bound_to 3712
   -4.1229  -23.3133   10.5890 H   0  0  0  0  0  0  0  0  0  0  0  0  # atno 3767 bound_to 3762
    1.7046  -19.6993    8.8735 H   0  0  0  0  0  0  0  0  0  0  0  0  # atno 3841 bound_to 3832
    3.3887   -9.2120    3.7921 LP  0  0  0  0  0  0  0  0  0  0  0  0  # atno 4297 bound_to 1298
    4.7468   -8.6894    4.5331 LP  0  0  0  0  0  0  0  0  0  0  0  0  # atno 4298 bound_to 1298
    2.1587   -8.4934    7.9255 LP  0  0  0  0  0  0  0  0  0  0  0  0  # atno 4299 bound_to 2456
    0.8490   -8.0710    7.0463 LP  0  0  0  0  0  0  0  0  0  0  0  0  # atno 4300 bound_to 2456
    2.0380   -7.7733    5.8733 LP  0  0  0  0  0  0  0  0  0  0  0  0  # atno 4301 bound_to 2510
    2.7047   -7.9754    4.3964 LP  0  0  0  0  0  0  0  0  0  0  0  0  # atno 4302 bound_to 2510
   -3.4245  -16.7076   14.4951 LP  0  0  0  0  0  0  0  0  0  0  0  0  # atno 4306 bound_to 3712
   -3.2385  -17.2685   12.9728 LP  0  0  0  0  0  0  0  0  0  0  0  0  # atno 4307 bound_to 3712
    3.0570  -20.3587    8.3147 LP  0  0  0  0  0  0  0  0  0  0  0  0  # atno 4314 bound_to 3832
    2.2034  -21.0908    9.4988 LP  0  0  0  0  0  0  0  0  0  0  0  0  # atno 4315 bound_to 3832
   -5.4766  -22.4332   10.3442 LP  0  0  0  0  0  0  0  0  0  0  0  0  # atno 4318 bound_to 3762
   -4.5276  -22.1288   11.6378 LP  0  0  0  0  0  0  0  0  0  0  0  0  # atno 4319 bound_to 3762
   -5.2398   -5.4205    9.1460 LP  0  0  0  0  0  0  0  0  0  0  0  0  # atno 4320 bound_to 2467
   -4.8089   -4.8447    7.6799 LP  0  0  0  0  0  0  0  0  0  0  0  0  # atno 4321 bound_to 2467

> <Gold.Score>
     Score     S(PLP)   S(hbond)     S(cho)   S(metal)  DE(clash)   DE(tors)     intcor
     33.46     -30.88       0.99       0.00       0.00       0.00       0.20       0.00

> <Gold.PLP.Fitness>
33.4645

> <Gold.PLP.PLP>
-30.8846

> <Gold.PLP.part.hbond>
-1.0000

> <Gold.PLP.part.metal>
0.0000

> <Gold.PLP.part.buried>
-4.1093

> <Gold.PLP.part.nonpolar>
-26.1048

> <Gold.PLP.part.repulsive>
0.0786

> <Gold.PLP.ligand.clash>
0.0000

> <Gold.PLP.ligand.torsion>
0.1985

> <Gold.PLP.Chemscore.Hbond>
0.9920

> <Gold.PLP.Chemscore.CHOScore>
0.0000

> <Gold.PLP.Chemscore.Metal>
0.0000

> <Gold.Chemscore.Hbonds>
donor molecule, donor type, donor heavy atom, donor atom, acceptor molecule, acceptor atom, score
      P1  H  2456  2461       L1     1  0.99

> <Gold.PLP.Chemscore.Internal.Correction>
0.0009

