#       Name:                EN300-1231025_i001
#       Creating user name   fsindt
#       Creation time:       Mon Feb 27 18:14:22 2023


#       File generated by GOLD software.
#

@<TRIPOS>MOLECULE
EN300-1231025_i001|acide_1|mol2|268|dock4
    16    15     1
SMALL
USER_CHARGES


@<TRIPOS>ATOM
      1 O1          -0.7018 -13.1655  10.8808 O.3            1 <1>                0.0000
      2 C2          -0.4584 -11.8306  10.4328 C.3            1 <1>                0.0000
      3 C3          -1.7310 -10.9974  10.5975 C.3            1 <1>                0.0000
      4 C4          -2.7501 -11.4068   9.5322 C.3            1 <1>                0.0000
      5 C5          -4.0780 -10.8881   9.8986 C.1            1 <1>                0.0000
      6 C6          -5.1372 -10.4744  10.1909 C.1            1 <1>                0.0000
      7 C7          -0.0573 -11.8534   8.9803 C.2            1 <1>                0.0000
      8 O8           0.0166 -12.9148   8.3849 O.co2          1 <1>                0.0000
      9 O9           0.1933 -10.8105   8.4007 O.co2          1 <1>               -1.0000
     10 H10          0.3438 -11.3894  11.0244 H              1 <1>                0.0000
     11 H11         -2.1520 -11.1691  11.5881 H              1 <1>                0.0000
     12 H12         -1.4906  -9.9404  10.4831 H              1 <1>                0.0000
     13 H13         -2.4527 -10.9952   8.5678 H              1 <1>                0.0000
     14 H14         -2.7901 -12.4941   9.4666 H              1 <1>                0.0000
     15 H15         -6.0844 -10.1045  10.4523 H              1 <1>                0.0000
     16 H16         -0.1581 -13.8333  10.4409 H              1 <1>                0.0000
@<TRIPOS>BOND
    1    1    2 1     
    2    1   16 1     
    3    2    3 1     
    4    2    7 1     
    5    2   10 1     
    6    3    4 1     
    7    3   11 1     
    8    3   12 1     
    9    4    5 1     
   10    4   13 1     
   11    4   14 1     
   12    5    6 3     
   13    6   15 1     
   14    7    8 ar    
   15    7    9 ar    
@<TRIPOS>SUBSTRUCTURE
      1 ****           1
@<TRIPOS>SET
DONOR_HYDROGENS      STATIC     ATOMS    <user>   **** ""
1 16
ATOM$RED        STATIC     ATOMS    COLORGROUP SYSTEM
1 16
@<TRIPOS>COMMENT
> <Gold.Version>
2022.2.0

> <Gold.Id.Protein>
3pbl|protein|mol2

> <Gold.Protein.RotatedTorsions>
[ 1303 1298 1297 1294 ] final   14.93 input  179.99 | X-H torsion
[ 2461 2456 2455 2452 ] final -149.37 input   30.03 | X-H torsion
[ 2515 2510 2509 2506 ] final  140.56 input  -89.99 | X-H torsion
[ 3721 3712 3711 3710 ] final -155.61 input -179.91 | X-H torsion
[ 3841 3832 3831 3830 ] final   -9.31 input -179.91 | X-H torsion
[ 3767 3762 3761 3758 ] final  -59.44 input  -89.99 | X-H torsion
[ 2472 2467 2466 2463 ] final  -46.10 input  -89.97 | X-H torsion

> <Gold.Protein.ActiveResidues>
 VAL82   VAL86   LEU89   PHE106  VAL107  ASP110  VAL111  MET112  CYS114  THR115 
 CYS181  SER182  ILE183  PHE188  VAL189  ILE190  SER192  SER193  SER196  TRP342 
 PHE345  PHE346  HIS349  VAL350  TYR365  THR369  GLY372  TYR373 

> <Gold.Protein.RotatedAtoms>
    3.4867  -10.0481    4.1853 H   0  0  0  0  0  0  0  0  0  0  0  0  # atno 1303 bound_to 1298
    0.9675   -9.2869    8.3024 H   0  0  0  0  0  0  0  0  0  0  0  0  # atno 2461 bound_to 2456
   -3.6542   -5.1074    8.7593 H   0  0  0  0  0  0  0  0  0  0  0  0  # atno 2472 bound_to 2467
    2.1016   -8.4961    6.0924 H   0  0  0  0  0  0  0  0  0  0  0  0  # atno 2515 bound_to 2510
   -3.3343  -16.5302   13.9041 H   0  0  0  0  0  0  0  0  0  0  0  0  # atno 3721 bound_to 3712
   -5.4655  -22.0646   10.8021 H   0  0  0  0  0  0  0  0  0  0  0  0  # atno 3767 bound_to 3762
    1.6647  -20.3782    9.5059 H   0  0  0  0  0  0  0  0  0  0  0  0  # atno 3841 bound_to 3832
    4.0278   -8.5227    3.9688 LP  0  0  0  0  0  0  0  0  0  0  0  0  # atno 4297 bound_to 1298
    4.8479   -9.5503    4.9375 LP  0  0  0  0  0  0  0  0  0  0  0  0  # atno 4298 bound_to 1298
    2.1402   -8.3046    7.7303 LP  0  0  0  0  0  0  0  0  0  0  0  0  # atno 4299 bound_to 2456
    0.6299   -8.2169    7.1156 LP  0  0  0  0  0  0  0  0  0  0  0  0  # atno 4300 bound_to 2456
    2.3974   -7.4632    4.8630 LP  0  0  0  0  0  0  0  0  0  0  0  0  # atno 4301 bound_to 2510
    2.7979   -9.0398    4.7194 LP  0  0  0  0  0  0  0  0  0  0  0  0  # atno 4302 bound_to 2510
   -2.8981  -17.8443   13.0912 LP  0  0  0  0  0  0  0  0  0  0  0  0  # atno 4306 bound_to 3712
   -2.7801  -17.7976   14.7193 LP  0  0  0  0  0  0  0  0  0  0  0  0  # atno 4307 bound_to 3712
    2.2855  -19.6913    8.1948 LP  0  0  0  0  0  0  0  0  0  0  0  0  # atno 4314 bound_to 3832
    3.0209  -20.9741    8.8880 LP  0  0  0  0  0  0  0  0  0  0  0  0  # atno 4315 bound_to 3832
   -4.1002  -22.5263   11.5700 LP  0  0  0  0  0  0  0  0  0  0  0  0  # atno 4318 bound_to 3762
   -4.5619  -23.2839   10.1990 LP  0  0  0  0  0  0  0  0  0  0  0  0  # atno 4319 bound_to 3762
   -5.1969   -5.4302    9.1861 LP  0  0  0  0  0  0  0  0  0  0  0  0  # atno 4320 bound_to 2467
   -4.8656   -4.8559    7.6938 LP  0  0  0  0  0  0  0  0  0  0  0  0  # atno 4321 bound_to 2467

> <Gold.Score>
     Score     S(PLP)   S(hbond)     S(cho)   S(metal)  DE(clash)   DE(tors)     intcor
     37.15     -34.43       1.00       0.00       0.00       0.00       0.14       0.00

> <Gold.PLP.Fitness>
37.1479

> <Gold.PLP.PLP>
-34.4345

> <Gold.PLP.part.hbond>
-1.0000

> <Gold.PLP.part.metal>
0.0000

> <Gold.PLP.part.buried>
-4.6320

> <Gold.PLP.part.nonpolar>
-29.1630

> <Gold.PLP.part.repulsive>
0.0015

> <Gold.PLP.ligand.clash>
0.0000

> <Gold.PLP.ligand.torsion>
0.1437

> <Gold.PLP.Chemscore.Hbond>
1.0000

> <Gold.PLP.Chemscore.CHOScore>
0.0000

> <Gold.PLP.Chemscore.Metal>
0.0000

> <Gold.Chemscore.Hbonds>
donor molecule, donor type, donor heavy atom, donor atom, acceptor molecule, acceptor atom, score
      P1  H  2456  2461       L1     9  1.00

> <Gold.PLP.Chemscore.Internal.Correction>
0.0009

