#       Name:                EN300-1231025_i001
#       Creating user name   fsindt
#       Creation time:       Mon Feb 27 18:14:33 2023


#       File generated by GOLD software.
#

@<TRIPOS>MOLECULE
EN300-1231025_i001|acide_1|mol2|268|dock16
    16    15     1
SMALL
USER_CHARGES


@<TRIPOS>ATOM
      1 O1          -2.2079  -9.1518   9.5865 O.3            1 <1>                0.0000
      2 C2          -2.6646 -10.3677  10.1821 C.3            1 <1>                0.0000
      3 C3          -1.9275 -11.5519   9.5535 C.3            1 <1>                0.0000
      4 C4          -0.4255 -11.2618   9.5270 C.3            1 <1>                0.0000
      5 C5           0.1923 -11.9767   8.3983 C.1            1 <1>                0.0000
      6 C6           0.6851 -12.5469   7.4981 C.1            1 <1>                0.0000
      7 C7          -4.1459 -10.5163   9.9479 C.2            1 <1>                0.0000
      8 O8          -4.5914 -11.5620   9.5066 O.co2          1 <1>                0.0000
      9 O9          -4.8988  -9.5910  10.1998 O.co2          1 <1>               -1.0000
     10 H10         -2.4668 -10.3440  11.2538 H              1 <1>                0.0000
     11 H11         -2.1138 -12.4499  10.1425 H              1 <1>                0.0000
     12 H12         -2.2862 -11.7042   8.5355 H              1 <1>                0.0000
     13 H13         -0.2645 -10.1902   9.4101 H              1 <1>                0.0000
     14 H14          0.0259 -11.5975  10.4606 H              1 <1>                0.0000
     15 H15          1.1258 -13.0569   6.6930 H              1 <1>                0.0000
     16 H16         -2.6387  -8.3582   9.9325 H              1 <1>                0.0000
@<TRIPOS>BOND
    1    1    2 1     
    2    1   16 1     
    3    2    3 1     
    4    2    7 1     
    5    2   10 1     
    6    3    4 1     
    7    3   11 1     
    8    3   12 1     
    9    4    5 1     
   10    4   13 1     
   11    4   14 1     
   12    5    6 3     
   13    6   15 1     
   14    7    8 ar    
   15    7    9 ar    
@<TRIPOS>SUBSTRUCTURE
      1 ****           1
@<TRIPOS>SET
DONOR_HYDROGENS      STATIC     ATOMS    <user>   **** ""
1 16
ATOM$RED        STATIC     ATOMS    COLORGROUP SYSTEM
1 16
@<TRIPOS>COMMENT
> <Gold.Version>
2022.2.0

> <Gold.Id.Protein>
3pbl|protein|mol2

> <Gold.Protein.RotatedTorsions>
[ 1303 1298 1297 1294 ] final -106.43 input  179.99 | X-H torsion
[ 2461 2456 2455 2452 ] final  149.69 input   30.03 | X-H torsion
[ 2515 2510 2509 2506 ] final  -19.95 input  -89.99 | X-H torsion
[ 3721 3712 3711 3710 ] final   89.41 input -179.91 | X-H torsion
[ 3841 3832 3831 3830 ] final  117.12 input -179.91 | X-H torsion
[ 3767 3762 3761 3758 ] final   51.95 input  -89.99 | X-H torsion
[ 2472 2467 2466 2463 ] final  112.14 input  -89.97 | X-H torsion

> <Gold.Protein.ActiveResidues>
 VAL82   VAL86   LEU89   PHE106  VAL107  ASP110  VAL111  MET112  CYS114  THR115 
 CYS181  SER182  ILE183  PHE188  VAL189  ILE190  SER192  SER193  SER196  TRP342 
 PHE345  PHE346  HIS349  VAL350  TYR365  THR369  GLY372  TYR373 

> <Gold.Protein.RotatedAtoms>
    4.0461   -8.5163    3.9797 H   0  0  0  0  0  0  0  0  0  0  0  0  # atno 1303 bound_to 1298
    1.8732   -8.9792    8.3112 H   0  0  0  0  0  0  0  0  0  0  0  0  # atno 2461 bound_to 2456
   -5.3540   -5.0312    8.0288 H   0  0  0  0  0  0  0  0  0  0  0  0  # atno 2472 bound_to 2467
    2.6670   -7.8757    4.4352 H   0  0  0  0  0  0  0  0  0  0  0  0  # atno 2515 bound_to 2510
   -2.7795  -17.6221   13.1077 H   0  0  0  0  0  0  0  0  0  0  0  0  # atno 3721 bound_to 3712
   -4.6811  -23.2363   10.1396 H   0  0  0  0  0  0  0  0  0  0  0  0  # atno 3767 bound_to 3762
    3.0663  -20.7503    8.9712 H   0  0  0  0  0  0  0  0  0  0  0  0  # atno 3841 bound_to 3832
    4.8403   -9.5712    4.9403 LP  0  0  0  0  0  0  0  0  0  0  0  0  # atno 4297 bound_to 1298
    3.4759  -10.0342    4.1718 LP  0  0  0  0  0  0  0  0  0  0  0  0  # atno 4298 bound_to 1298
    1.5098   -7.9180    7.1241 LP  0  0  0  0  0  0  0  0  0  0  0  0  # atno 4299 bound_to 2456
    0.3550   -8.9111    7.7131 LP  0  0  0  0  0  0  0  0  0  0  0  0  # atno 4300 bound_to 2456
    2.5992   -9.2578    5.3018 LP  0  0  0  0  0  0  0  0  0  0  0  0  # atno 4301 bound_to 2510
    2.0304   -7.8658    5.9386 LP  0  0  0  0  0  0  0  0  0  0  0  0  # atno 4302 bound_to 2510
   -2.7670  -17.8232   14.7006 LP  0  0  0  0  0  0  0  0  0  0  0  0  # atno 4306 bound_to 3712
   -3.5516  -16.5581   14.0294 LP  0  0  0  0  0  0  0  0  0  0  0  0  # atno 4307 bound_to 3712
    1.5440  -20.5820    9.4514 LP  0  0  0  0  0  0  0  0  0  0  0  0  # atno 4314 bound_to 3832
    2.1433  -19.6536    8.2491 LP  0  0  0  0  0  0  0  0  0  0  0  0  # atno 4315 bound_to 3832
   -5.4174  -22.0061   10.9215 LP  0  0  0  0  0  0  0  0  0  0  0  0  # atno 4318 bound_to 3762
   -4.0289  -22.6328   11.5097 LP  0  0  0  0  0  0  0  0  0  0  0  0  # atno 4319 bound_to 3762
   -3.7329   -4.9067    8.1805 LP  0  0  0  0  0  0  0  0  0  0  0  0  # atno 4320 bound_to 2467
   -4.6302   -5.4556    9.4297 LP  0  0  0  0  0  0  0  0  0  0  0  0  # atno 4321 bound_to 2467

> <Gold.Score>
     Score     S(PLP)   S(hbond)     S(cho)   S(metal)  DE(clash)   DE(tors)     intcor
     33.60     -31.48       1.00       0.00       0.00       0.00       0.44       0.00

> <Gold.PLP.Fitness>
33.6017

> <Gold.PLP.PLP>
-31.4790

> <Gold.PLP.part.hbond>
-1.9661

> <Gold.PLP.part.metal>
0.0000

> <Gold.PLP.part.buried>
-2.4607

> <Gold.PLP.part.nonpolar>
-28.1843

> <Gold.PLP.part.repulsive>
0.2443

> <Gold.PLP.ligand.clash>
0.0000

> <Gold.PLP.ligand.torsion>
0.4391

> <Gold.PLP.Chemscore.Hbond>
1.0000

> <Gold.PLP.Chemscore.CHOScore>
0.0000

> <Gold.PLP.Chemscore.Metal>
0.0000

> <Gold.Chemscore.Hbonds>
donor molecule, donor type, donor heavy atom, donor atom, acceptor molecule, acceptor atom, score
      L1  H     1    16       P1  2398  1.00

> <Gold.PLP.Chemscore.Internal.Correction>
0.0007

