#       Name:                EN300-1231025_i001
#       Creating user name   fsindt
#       Creation time:       Mon Feb 27 18:14:31 2023


#       File generated by GOLD software.
#

@<TRIPOS>MOLECULE
EN300-1231025_i001|acide_1|mol2|268|dock14
    16    15     1
SMALL
USER_CHARGES


@<TRIPOS>ATOM
      1 O1           0.9036 -10.8023   9.1865 O.3            1 <1>                0.0000
      2 C2          -0.1020 -11.5979   8.5560 C.3            1 <1>                0.0000
      3 C3          -0.7021 -12.5653   9.5781 C.3            1 <1>                0.0000
      4 C4          -1.3462 -11.7704  10.7157 C.3            1 <1>                0.0000
      5 C5          -2.4822 -10.9954  10.1908 C.1            1 <1>                0.0000
      6 C6          -3.3882 -10.3771   9.7722 C.1            1 <1>                0.0000
      7 C7           0.5130 -12.3805   7.4244 C.2            1 <1>                0.0000
      8 O8           0.4222 -13.5962   7.4040 O.co2          1 <1>                0.0000
      9 O9           1.1012 -11.7980   6.5293 O.co2          1 <1>               -1.0000
     10 H10         -0.8863 -10.9496   8.1652 H              1 <1>                0.0000
     11 H11         -1.4579 -13.1833   9.0933 H              1 <1>                0.0000
     12 H12          0.0850 -13.2030   9.9806 H              1 <1>                0.0000
     13 H13         -1.6996 -12.4576  11.4844 H              1 <1>                0.0000
     14 H14         -0.6106 -11.0909  11.1461 H              1 <1>                0.0000
     15 H15         -4.1986  -9.8242   9.3977 H              1 <1>                0.0000
     16 H16          0.9750  -9.9053   8.8323 H              1 <1>                0.0000
@<TRIPOS>BOND
    1    1    2 1     
    2    1   16 1     
    3    2    3 1     
    4    2    7 1     
    5    2   10 1     
    6    3    4 1     
    7    3   11 1     
    8    3   12 1     
    9    4    5 1     
   10    4   13 1     
   11    4   14 1     
   12    5    6 3     
   13    6   15 1     
   14    7    8 ar    
   15    7    9 ar    
@<TRIPOS>SUBSTRUCTURE
      1 ****           1
@<TRIPOS>SET
DONOR_HYDROGENS      STATIC     ATOMS    <user>   **** ""
1 16
ATOM$RED        STATIC     ATOMS    COLORGROUP SYSTEM
1 16
@<TRIPOS>COMMENT
> <Gold.Version>
2022.2.0

> <Gold.Id.Protein>
3pbl|protein|mol2

> <Gold.Protein.RotatedTorsions>
[ 1303 1298 1297 1294 ] final  -49.19 input  179.99 | X-H torsion
[ 2461 2456 2455 2452 ] final   75.59 input   30.03 | X-H torsion
[ 2515 2510 2509 2506 ] final -161.37 input  -89.99 | X-H torsion
[ 3721 3712 3711 3710 ] final   27.95 input -179.91 | X-H torsion
[ 3841 3832 3831 3830 ] final  -18.35 input -179.91 | X-H torsion
[ 3767 3762 3761 3758 ] final   72.78 input  -89.99 | X-H torsion
[ 2472 2467 2466 2463 ] final  153.25 input  -89.97 | X-H torsion

> <Gold.Protein.ActiveResidues>
 VAL82   VAL86   LEU89   PHE106  VAL107  ASP110  VAL111  MET112  CYS114  THR115 
 CYS181  SER182  ILE183  PHE188  VAL189  ILE190  SER192  SER193  SER196  TRP342 
 PHE345  PHE346  HIS349  VAL350  TYR365  THR369  GLY372  TYR373 

> <Gold.Protein.RotatedAtoms>
    3.4180   -9.1344    3.7830 H   0  0  0  0  0  0  0  0  0  0  0  0  # atno 1303 bound_to 1298
    2.0592   -8.1543    7.5521 H   0  0  0  0  0  0  0  0  0  0  0  0  # atno 2461 bound_to 2456
   -5.5019   -5.2643    8.6305 H   0  0  0  0  0  0  0  0  0  0  0  0  # atno 2472 bound_to 2467
    2.4536   -9.1915    5.6134 H   0  0  0  0  0  0  0  0  0  0  0  0  # atno 2515 bound_to 2510
   -2.4791  -18.0341   13.8313 H   0  0  0  0  0  0  0  0  0  0  0  0  # atno 3721 bound_to 3712
   -4.3979  -23.3250   10.3072 H   0  0  0  0  0  0  0  0  0  0  0  0  # atno 3767 bound_to 3762
    1.6119  -20.2700    9.4417 H   0  0  0  0  0  0  0  0  0  0  0  0  # atno 3841 bound_to 3832
    4.7872   -8.7437    4.5823 LP  0  0  0  0  0  0  0  0  0  0  0  0  # atno 4297 bound_to 1298
    4.1572  -10.2433    4.7264 LP  0  0  0  0  0  0  0  0  0  0  0  0  # atno 4298 bound_to 1298
    0.4754   -8.3773    7.2218 LP  0  0  0  0  0  0  0  0  0  0  0  0  # atno 4299 bound_to 2456
    1.2035   -9.2764    8.3742 LP  0  0  0  0  0  0  0  0  0  0  0  0  # atno 4300 bound_to 2456
    2.0724   -7.6066    5.7065 LP  0  0  0  0  0  0  0  0  0  0  0  0  # atno 4301 bound_to 2510
    2.7706   -8.2006    4.3551 LP  0  0  0  0  0  0  0  0  0  0  0  0  # atno 4302 bound_to 2510
   -3.2487  -16.9735   14.7592 LP  0  0  0  0  0  0  0  0  0  0  0  0  # atno 4306 bound_to 3712
   -3.4168  -16.9321   13.1354 LP  0  0  0  0  0  0  0  0  0  0  0  0  # atno 4307 bound_to 3712
    2.4217  -19.7455    8.1590 LP  0  0  0  0  0  0  0  0  0  0  0  0  # atno 4314 bound_to 3832
    2.9456  -21.0449    8.9980 LP  0  0  0  0  0  0  0  0  0  0  0  0  # atno 4315 bound_to 3832
   -5.5050  -22.1706   10.6361 LP  0  0  0  0  0  0  0  0  0  0  0  0  # atno 4318 bound_to 3762
   -4.2244  -22.3797   11.6275 LP  0  0  0  0  0  0  0  0  0  0  0  0  # atno 4319 bound_to 3762
   -4.2147   -4.8006    7.7391 LP  0  0  0  0  0  0  0  0  0  0  0  0  # atno 4320 bound_to 2467
   -4.0005   -5.3286    9.2695 LP  0  0  0  0  0  0  0  0  0  0  0  0  # atno 4321 bound_to 2467

> <Gold.Score>
     Score     S(PLP)   S(hbond)     S(cho)   S(metal)  DE(clash)   DE(tors)     intcor
     34.44     -31.49       1.00       0.00       0.00       0.00       0.03       0.00

> <Gold.PLP.Fitness>
34.4382

> <Gold.PLP.PLP>
-31.4938

> <Gold.PLP.part.hbond>
-1.0000

> <Gold.PLP.part.metal>
0.0000

> <Gold.PLP.part.buried>
-4.4841

> <Gold.PLP.part.nonpolar>
-26.5668

> <Gold.PLP.part.repulsive>
0.0687

> <Gold.PLP.ligand.clash>
0.0000

> <Gold.PLP.ligand.torsion>
0.0282

> <Gold.PLP.Chemscore.Hbond>
1.0000

> <Gold.PLP.Chemscore.CHOScore>
0.0000

> <Gold.PLP.Chemscore.Metal>
0.0000

> <Gold.Chemscore.Hbonds>
donor molecule, donor type, donor heavy atom, donor atom, acceptor molecule, acceptor atom, score
      L1  H     1    16       P1  2456  1.00

> <Gold.PLP.Chemscore.Internal.Correction>
0.0009

