#       Name:                EN300-1231025_i001
#       Creating user name   fsindt
#       Creation time:       Mon Feb 27 18:14:24 2023


#       File generated by GOLD software.
#

@<TRIPOS>MOLECULE
EN300-1231025_i001|acide_1|mol2|268|dock7
    16    15     1
SMALL
USER_CHARGES


@<TRIPOS>ATOM
      1 O1           0.9936 -10.8074   9.6862 O.3            1 <1>                0.0000
      2 C2          -0.0092 -11.6993   9.1956 C.3            1 <1>                0.0000
      3 C3          -0.8010 -12.2733  10.3721 C.3            1 <1>                0.0000
      4 C4          -1.4824 -11.1339  11.1326 C.3            1 <1>                0.0000
      5 C5          -2.7640 -10.8095  10.4854 C.1            1 <1>                0.0000
      6 C6          -3.7863 -10.5508   9.9692 C.1            1 <1>                0.0000
      7 C7           0.6465 -12.8232   8.4353 C.2            1 <1>                0.0000
      8 O8           1.2731 -13.6805   9.0346 O.co2          1 <1>                0.0000
      9 O9           0.5504 -12.8753   7.2210 O.co2          1 <1>               -1.0000
     10 H10         -0.6843 -11.1578   8.5329 H              1 <1>                0.0000
     11 H11         -1.5570 -12.9641   9.9988 H              1 <1>                0.0000
     12 H12         -0.1237 -12.8032  11.0419 H              1 <1>                0.0000
     13 H13         -1.6631 -11.4415  12.1625 H              1 <1>                0.0000
     14 H14         -0.8381 -10.2547  11.1237 H              1 <1>                0.0000
     15 H15         -4.7005 -10.3194   9.5075 H              1 <1>                0.0000
     16 H16          1.1930 -10.0731   9.0894 H              1 <1>                0.0000
@<TRIPOS>BOND
    1    1    2 1     
    2    1   16 1     
    3    2    3 1     
    4    2    7 1     
    5    2   10 1     
    6    3    4 1     
    7    3   11 1     
    8    3   12 1     
    9    4    5 1     
   10    4   13 1     
   11    4   14 1     
   12    5    6 3     
   13    6   15 1     
   14    7    8 ar    
   15    7    9 ar    
@<TRIPOS>SUBSTRUCTURE
      1 ****           1
@<TRIPOS>SET
DONOR_HYDROGENS      STATIC     ATOMS    <user>   **** ""
1 16
ATOM$RED        STATIC     ATOMS    COLORGROUP SYSTEM
1 16
@<TRIPOS>COMMENT
> <Gold.Version>
2022.2.0

> <Gold.Id.Protein>
3pbl|protein|mol2

> <Gold.Protein.RotatedTorsions>
[ 1303 1298 1297 1294 ] final  162.84 input  179.99 | X-H torsion
[ 2461 2456 2455 2452 ] final  -34.76 input   30.03 | X-H torsion
[ 2515 2510 2509 2506 ] final  -71.82 input  -89.99 | X-H torsion
[ 3721 3712 3711 3710 ] final  123.65 input -179.91 | X-H torsion
[ 3841 3832 3831 3830 ] final   11.26 input -179.91 | X-H torsion
[ 3767 3762 3761 3758 ] final  136.36 input  -89.99 | X-H torsion
[ 2472 2467 2466 2463 ] final   -4.37 input  -89.97 | X-H torsion

> <Gold.Protein.ActiveResidues>
 VAL82   VAL86   LEU89   PHE106  VAL107  ASP110  VAL111  MET112  CYS114  THR115 
 CYS181  SER182  ILE183  PHE188  VAL189  ILE190  SER192  SER193  SER196  TRP342 
 PHE345  PHE346  HIS349  VAL350  TYR365  THR369  GLY372  TYR373 

> <Gold.Protein.RotatedAtoms>
    4.9090   -9.1174    4.8126 H   0  0  0  0  0  0  0  0  0  0  0  0  # atno 1303 bound_to 1298
    0.5688   -8.2718    7.1491 H   0  0  0  0  0  0  0  0  0  0  0  0  # atno 2461 bound_to 2456
   -3.7598   -4.8929    8.1318 H   0  0  0  0  0  0  0  0  0  0  0  0  # atno 2472 bound_to 2467
    2.8355   -8.6826    4.4483 H   0  0  0  0  0  0  0  0  0  0  0  0  # atno 2515 bound_to 2510
   -3.0354  -17.1855   13.0438 H   0  0  0  0  0  0  0  0  0  0  0  0  # atno 3721 bound_to 3712
   -3.9082  -23.0444   11.1250 H   0  0  0  0  0  0  0  0  0  0  0  0  # atno 3767 bound_to 3762
    1.8452  -20.6101    9.6018 H   0  0  0  0  0  0  0  0  0  0  0  0  # atno 3841 bound_to 3832
    3.7822  -10.2476    4.4675 LP  0  0  0  0  0  0  0  0  0  0  0  0  # atno 4297 bound_to 1298
    3.6707   -8.7564    3.8113 LP  0  0  0  0  0  0  0  0  0  0  0  0  # atno 4298 bound_to 1298
    1.0508   -9.2885    8.3329 LP  0  0  0  0  0  0  0  0  0  0  0  0  # atno 4299 bound_to 2456
    2.1179   -8.2478    7.6659 LP  0  0  0  0  0  0  0  0  0  0  0  0  # atno 4300 bound_to 2456
    2.2462   -8.8996    5.9554 LP  0  0  0  0  0  0  0  0  0  0  0  0  # atno 4301 bound_to 2510
    2.2148   -7.4168    5.2719 LP  0  0  0  0  0  0  0  0  0  0  0  0  # atno 4302 bound_to 2510
   -2.6211  -18.1459   14.2619 LP  0  0  0  0  0  0  0  0  0  0  0  0  # atno 4306 bound_to 3712
   -3.4022  -16.7394   14.5419 LP  0  0  0  0  0  0  0  0  0  0  0  0  # atno 4307 bound_to 3712
    1.9785  -19.6347    8.3342 LP  0  0  0  0  0  0  0  0  0  0  0  0  # atno 4314 bound_to 3832
    3.1194  -20.7629    8.6379 LP  0  0  0  0  0  0  0  0  0  0  0  0  # atno 4315 bound_to 3832
   -5.1531  -22.9120   10.0764 LP  0  0  0  0  0  0  0  0  0  0  0  0  # atno 4318 bound_to 3762
   -5.0658  -21.9188   11.3697 LP  0  0  0  0  0  0  0  0  0  0  0  0  # atno 4319 bound_to 3762
   -4.5729   -5.4506    9.4334 LP  0  0  0  0  0  0  0  0  0  0  0  0  # atno 4320 bound_to 2467
   -5.3841   -5.0499    8.0739 LP  0  0  0  0  0  0  0  0  0  0  0  0  # atno 4321 bound_to 2467

> <Gold.Score>
     Score     S(PLP)   S(hbond)     S(cho)   S(metal)  DE(clash)   DE(tors)     intcor
     34.65     -32.41       1.00       0.00       0.00       0.00       0.38       0.00

> <Gold.PLP.Fitness>
34.6477

> <Gold.PLP.PLP>
-32.4081

> <Gold.PLP.part.hbond>
-1.0000

> <Gold.PLP.part.metal>
0.0000

> <Gold.PLP.part.buried>
-4.2326

> <Gold.PLP.part.nonpolar>
-28.1163

> <Gold.PLP.part.repulsive>
0.0880

> <Gold.PLP.ligand.clash>
0.0000

> <Gold.PLP.ligand.torsion>
0.3806

> <Gold.PLP.Chemscore.Hbond>
1.0000

> <Gold.PLP.Chemscore.CHOScore>
0.0000

> <Gold.PLP.Chemscore.Metal>
0.0000

> <Gold.Chemscore.Hbonds>
donor molecule, donor type, donor heavy atom, donor atom, acceptor molecule, acceptor atom, score
      L1  H     1    16       P1  2456  1.00

> <Gold.PLP.Chemscore.Internal.Correction>
0.0009

