#       Name:                EN300-1231025_i001
#       Creating user name   fsindt
#       Creation time:       Mon Feb 27 18:14:36 2023


#       File generated by GOLD software.
#

@<TRIPOS>MOLECULE
EN300-1231025_i001|acide_1|mol2|268|dock20
    16    15     1
SMALL
USER_CHARGES


@<TRIPOS>ATOM
      1 O1           2.0645 -17.4690  12.4832 O.3            1 <1>                0.0000
      2 C2           0.7277 -17.7247  12.9185 C.3            1 <1>                0.0000
      3 C3          -0.2355 -17.5376  11.7447 C.3            1 <1>                0.0000
      4 C4          -0.4008 -18.8660  11.0038 C.3            1 <1>                0.0000
      5 C5          -0.8724 -18.6081   9.6334 C.1            1 <1>                0.0000
      6 C6          -1.2485 -18.4024   8.5405 C.1            1 <1>                0.0000
      7 C7           0.3666 -16.7647  14.0227 C.2            1 <1>                0.0000
      8 O8           1.1617 -15.9081  14.3700 O.co2          1 <1>                0.0000
      9 O9          -0.7206 -16.8446  14.5686 O.co2          1 <1>               -1.0000
     10 H10          0.6554 -18.7476  13.2884 H              1 <1>                0.0000
     11 H11         -1.2045 -17.2072  12.1189 H              1 <1>                0.0000
     12 H12          0.1650 -16.7882  11.0620 H              1 <1>                0.0000
     13 H13          0.5579 -19.3831  10.9668 H              1 <1>                0.0000
     14 H14         -1.1282 -19.4862  11.5277 H              1 <1>                0.0000
     15 H15         -1.5849 -18.2184   7.5630 H              1 <1>                0.0000
     16 H16          2.2002 -17.5959  11.5342 H              1 <1>                0.0000
@<TRIPOS>BOND
    1    1    2 1     
    2    1   16 1     
    3    2    3 1     
    4    2    7 1     
    5    2   10 1     
    6    3    4 1     
    7    3   11 1     
    8    3   12 1     
    9    4    5 1     
   10    4   13 1     
   11    4   14 1     
   12    5    6 3     
   13    6   15 1     
   14    7    8 ar    
   15    7    9 ar    
@<TRIPOS>SUBSTRUCTURE
      1 ****           1
@<TRIPOS>SET
DONOR_HYDROGENS      STATIC     ATOMS    <user>   **** ""
1 16
ATOM$RED        STATIC     ATOMS    COLORGROUP SYSTEM
1 16
@<TRIPOS>COMMENT
> <Gold.Version>
2022.2.0

> <Gold.Id.Protein>
3pbl|protein|mol2

> <Gold.Protein.RotatedTorsions>
[ 1303 1298 1297 1294 ] final   -6.93 input  179.99 | X-H torsion
[ 2461 2456 2455 2452 ] final  100.61 input   30.03 | X-H torsion
[ 2515 2510 2509 2506 ] final -141.69 input  -89.99 | X-H torsion
[ 3721 3712 3711 3710 ] final  -25.61 input -179.91 | X-H torsion
[ 3841 3832 3831 3830 ] final  104.41 input -179.91 | X-H torsion
[ 3767 3762 3761 3758 ] final    9.98 input  -89.99 | X-H torsion
[ 2472 2467 2466 2463 ] final   15.82 input  -89.97 | X-H torsion

> <Gold.Protein.ActiveResidues>
 VAL82   VAL86   LEU89   PHE106  VAL107  ASP110  VAL111  MET112  CYS114  THR115 
 CYS181  SER182  ILE183  PHE188  VAL189  ILE190  SER192  SER193  SER196  TRP342 
 PHE345  PHE346  HIS349  VAL350  TYR365  THR369  GLY372  TYR373 

> <Gold.Protein.RotatedAtoms>
    3.3560   -9.7788    3.9901 H   0  0  0  0  0  0  0  0  0  0  0  0  # atno 1303 bound_to 1298
    2.1607   -8.4160    7.8489 H   0  0  0  0  0  0  0  0  0  0  0  0  # atno 2461 bound_to 2456
   -3.9713   -4.8277    7.8863 H   0  0  0  0  0  0  0  0  0  0  0  0  # atno 2472 bound_to 2467
    2.5881   -9.2568    5.3281 H   0  0  0  0  0  0  0  0  0  0  0  0  # atno 2515 bound_to 2510
   -2.5800  -17.7465   14.5498 H   0  0  0  0  0  0  0  0  0  0  0  0  # atno 3721 bound_to 3712
   -5.2244  -22.8374   10.0964 H   0  0  0  0  0  0  0  0  0  0  0  0  # atno 3767 bound_to 3762
    2.9787  -20.8467    9.1118 H   0  0  0  0  0  0  0  0  0  0  0  0  # atno 3841 bound_to 3832
    4.3270   -8.4769    4.1590 LP  0  0  0  0  0  0  0  0  0  0  0  0  # atno 4297 bound_to 1298
    4.6794   -9.8655    4.9427 LP  0  0  0  0  0  0  0  0  0  0  0  0  # atno 4298 bound_to 1298
    0.7566   -8.1245    7.0674 LP  0  0  0  0  0  0  0  0  0  0  0  0  # atno 4299 bound_to 2456
    0.8207   -9.2676    8.2318 LP  0  0  0  0  0  0  0  0  0  0  0  0  # atno 4300 bound_to 2456
    2.0318   -7.8418    5.9231 LP  0  0  0  0  0  0  0  0  0  0  0  0  # atno 4301 bound_to 2510
    2.6768   -7.9001    4.4240 LP  0  0  0  0  0  0  0  0  0  0  0  0  # atno 4302 bound_to 2510
   -3.5470  -16.5609   14.0627 LP  0  0  0  0  0  0  0  0  0  0  0  0  # atno 4306 bound_to 3712
   -3.0020  -17.6768   13.0023 LP  0  0  0  0  0  0  0  0  0  0  0  0  # atno 4307 bound_to 3712
    1.4527  -20.4149    9.3583 LP  0  0  0  0  0  0  0  0  0  0  0  0  # atno 4314 bound_to 3832
    2.3357  -19.7092    8.1798 LP  0  0  0  0  0  0  0  0  0  0  0  0  # atno 4315 bound_to 3832
   -4.9838  -21.9317   11.4338 LP  0  0  0  0  0  0  0  0  0  0  0  0  # atno 4318 bound_to 3762
   -3.9193  -23.1060   11.0406 LP  0  0  0  0  0  0  0  0  0  0  0  0  # atno 4319 bound_to 3762
   -4.2492   -5.3996    9.3904 LP  0  0  0  0  0  0  0  0  0  0  0  0  # atno 4320 bound_to 2467
   -5.4962   -5.1662    8.3623 LP  0  0  0  0  0  0  0  0  0  0  0  0  # atno 4321 bound_to 2467

> <Gold.Score>
     Score     S(PLP)   S(hbond)     S(cho)   S(metal)  DE(clash)   DE(tors)     intcor
     33.70     -27.10       2.53       0.00       0.00       0.00       0.49       0.00

> <Gold.PLP.Fitness>
33.6980

> <Gold.PLP.PLP>
-27.0963

> <Gold.PLP.part.hbond>
-3.0000

> <Gold.PLP.part.metal>
0.0000

> <Gold.PLP.part.buried>
-4.5954

> <Gold.PLP.part.nonpolar>
-19.9682

> <Gold.PLP.part.repulsive>
0.0639

> <Gold.PLP.ligand.clash>
0.0000

> <Gold.PLP.ligand.torsion>
0.4915

> <Gold.PLP.Chemscore.Hbond>
2.5280

> <Gold.PLP.Chemscore.CHOScore>
0.0000

> <Gold.PLP.Chemscore.Metal>
0.0000

> <Gold.Chemscore.Hbonds>
donor molecule, donor type, donor heavy atom, donor atom, acceptor molecule, acceptor atom, score
      L1  H     1    16       P1  1227  1.00
      P1  H  2305  2313       L1     8  1.00
      P1  H  3712  3721       L1     9  0.53

> <Gold.PLP.Chemscore.Internal.Correction>
0.0007

