#       Name:                plp ligand
#       Creating user name   fsindt
#       Creation time:       Mon Feb 27 18:14:18 2023


#       File generated by GOLD software.
#

@<TRIPOS>MOLECULE
plp ligand
    16    15     1
SMALL
USER_CHARGES


@<TRIPOS>ATOM
      1 O1          -1.3936   1.6464  -0.0098 DONACC         1 <1>                0.0000
      2 C2          -1.2860   0.2942   0.4395 NONPOLAR       1 <1>                0.0000
      3 C3          -0.0077  -0.3301  -0.1235 NONPOLAR       1 <1>                0.0000
      4 C4           1.2106   0.3884   0.4599 NONPOLAR       1 <1>                0.0000
      5 C5           2.4404  -0.2123  -0.0818 NONPOLAR       1 <1>                0.0000
      6 C6           3.4213  -0.6914  -0.5138 NONPOLAR       1 <1>                0.0000
      7 C7          -2.4808  -0.4904  -0.0380 NONPOLAR       1 <1>                0.0000
      8 O8          -3.2977   0.0324  -0.7769 ACCEPTOR       1 <1>                0.0000
      9 O9          -2.6305  -1.6479   0.3145 ACCEPTOR       1 <1>               -1.0000
     10 H10         -1.2505   0.2750   1.5288                1 <1>                0.0000
     11 H11          0.0299  -1.3858   0.1452                1 <1>                0.0000
     12 H12         -0.0026  -0.2311  -1.2090                1 <1>                0.0000
     13 H13          1.1730   1.4440   0.1911                1 <1>                0.0000
     14 H14          1.2055   0.2894   1.5454                1 <1>                0.0000
     15 H15          4.2986  -1.1199  -0.9002                1 <1>                0.0000
     16 H16         -1.4302   1.7396  -0.9716                1 <1>                0.0000
@<TRIPOS>BOND
    1    1    2 1     
    2    1   16 1     
    3    2    3 1     
    4    2    7 1     
    5    2   10 1     
    6    3    4 1     
    7    3   11 1     
    8    3   12 1     
    9    4    5 1     
   10    4   13 1     
   11    4   14 1     
   12    5    6 3     
   13    6   15 1     
   14    7    8 ar    
   15    7    9 ar    
@<TRIPOS>SUBSTRUCTURE
      1 ****           1
@<TRIPOS>SET
DONOR_HYDROGENS      STATIC     ATOMS    <user>   **** ""
1 16
ATOM$RED        STATIC     ATOMS    COLORGROUP SYSTEM
1 16
