#       Name:                EN300-269527_i002
#       Creating user name   fsindt
#       Creation time:       Wed Mar  1 03:27:02 2023


#       File generated by GOLD software.
#

@<TRIPOS>MOLECULE
EN300-269527_i002|amine_7|mol2|10216|dock7
    32    33     1
SMALL
USER_CHARGES


@<TRIPOS>ATOM
      1 C1           1.1275 -14.6099   8.6235 C.3            1 <1>                0.0000
      2 C2           1.0878 -13.6492   7.4311 C.3            1 <1>                0.0000
      3 C3          -0.1736 -12.7857   7.5269 C.3            1 <1>                0.0000
      4 C4          -0.1767 -12.0475   8.8681 C.3            1 <1>                0.0000
      5 O5          -0.1074 -12.9976   9.9333 O.3            1 <1>                0.0000
      6 C6           1.0741 -13.8013   9.9223 C.3            1 <1>                0.0000
      7 C7          -1.4630 -11.2292   8.9972 C.3            1 <1>                0.0000
      8 C8          -2.6164 -12.1504   9.4049 C.3            1 <1>                0.0000
      9 C9          -3.8806 -11.3102   9.6075 C.3            1 <1>                0.0000
     10 C10         -3.6050 -10.2282  10.6538 C.3            1 <1>                0.0000
     11 N11         -2.5106  -9.3650  10.1937 N.4            1 <1>                1.0000
     12 C12         -1.2771 -10.1501  10.0661 C.3            1 <1>                0.0000
     13 H13          0.2711 -15.2827   8.5778 H              1 <1>                0.0000
     14 H14          2.0496 -15.1902   8.5933 H              1 <1>                0.0000
     15 H15          1.9700 -13.0092   7.4491 H              1 <1>                0.0000
     16 H16          1.0690 -14.2205   6.5030 H              1 <1>                0.0000
     17 H17         -0.1819 -12.0613   6.7125 H              1 <1>                0.0000
     18 H18         -1.0563 -13.4216   7.4591 H              1 <1>                0.0000
     19 H19          0.6846 -11.3815   8.9185 H              1 <1>                0.0000
     20 H20          1.0589 -14.4817  10.7738 H              1 <1>                0.0000
     21 H21          1.9518 -13.1582   9.9865 H              1 <1>                0.0000
     22 H22         -1.6930 -10.7593   8.0409 H              1 <1>                0.0000
     23 H23         -2.7899 -12.8864   8.6199 H              1 <1>                0.0000
     24 H24         -2.3646 -12.6600  10.3348 H              1 <1>                0.0000
     25 H25         -4.1611 -10.8414   8.6642 H              1 <1>                0.0000
     26 H26         -4.6923 -11.9511   9.9517 H              1 <1>                0.0000
     27 H27         -4.5032  -9.6282  10.8006 H              1 <1>                0.0000
     28 H28         -3.3249 -10.6980  11.5966 H              1 <1>                0.0000
     29 H29         -1.0465 -10.6216  11.0214 H              1 <1>                0.0000
     30 H30         -0.4564  -9.4926   9.7791 H              1 <1>                0.0000
     31 H31         -2.7502  -8.9688   9.2972 H              1 <1>                0.0000
     32 H32         -2.3673  -8.6213  10.8603 H              1 <1>                0.0000
@<TRIPOS>BOND
    1    1    2 1     
    2    1    6 1     
    3    1   13 1     
    4    1   14 1     
    5    2    3 1     
    6    2   15 1     
    7    2   16 1     
    8    3    4 1     
    9    3   17 1     
   10    3   18 1     
   11    4    5 1     
   12    4    7 1     
   13    4   19 1     
   14    5    6 1     
   15    6   20 1     
   16    6   21 1     
   17    7    8 1     
   18    7   12 1     
   19    7   22 1     
   20    8    9 1     
   21    8   23 1     
   22    8   24 1     
   23    9   10 1     
   24    9   25 1     
   25    9   26 1     
   26   10   11 1     
   27   10   27 1     
   28   10   28 1     
   29   11   12 1     
   30   11   31 1     
   31   11   32 1     
   32   12   29 1     
   33   12   30 1     
@<TRIPOS>SUBSTRUCTURE
      1 ****           1
@<TRIPOS>SET
DONOR_HYDROGENS      STATIC     ATOMS    <user>   **** ""
2 31 32
ATOM$RED        STATIC     ATOMS    COLORGROUP SYSTEM
2 31 32
@<TRIPOS>COMMENT
> <Gold.Version>
2022.2.0

> <Gold.Id.Protein>
3pbl|protein|mol2

> <Gold.Protein.RotatedTorsions>
[ 1303 1298 1297 1294 ] final  -88.52 input  179.99 | X-H torsion
[ 2461 2456 2455 2452 ] final   -7.60 input   30.03 | X-H torsion
[ 2515 2510 2509 2506 ] final  -32.52 input  -89.99 | X-H torsion
[ 3721 3712 3711 3710 ] final  109.33 input -179.91 | X-H torsion
[ 3841 3832 3831 3830 ] final -163.70 input -179.91 | X-H torsion
[ 3767 3762 3761 3758 ] final   37.88 input  -89.99 | X-H torsion
[ 2472 2467 2466 2463 ] final    1.83 input  -89.97 | X-H torsion

> <Gold.Protein.ActiveResidues>
 VAL82   VAL86   LEU89   PHE106  VAL107  ASP110  VAL111  MET112  CYS114  THR115 
 CYS181  SER182  ILE183  PHE188  VAL189  ILE190  SER192  SER193  SER196  TRP342 
 PHE345  PHE346  HIS349  VAL350  TYR365  THR369  GLY372  TYR373 

> <Gold.Protein.RotatedAtoms>
    3.8075   -8.6400    3.8619 H   0  0  0  0  0  0  0  0  0  0  0  0  # atno 1303 bound_to 1298
    0.9248   -8.0339    7.0358 H   0  0  0  0  0  0  0  0  0  0  0  0  # atno 2461 bound_to 2456
   -3.8151   -4.8693    8.0494 H   0  0  0  0  0  0  0  0  0  0  0  0  # atno 2472 bound_to 2467
    2.7328   -8.0615    4.3741 H   0  0  0  0  0  0  0  0  0  0  0  0  # atno 2515 bound_to 2510
   -2.9288  -17.3731   13.0335 H   0  0  0  0  0  0  0  0  0  0  0  0  # atno 3721 bound_to 3712
   -4.8768  -23.1301   10.0786 H   0  0  0  0  0  0  0  0  0  0  0  0  # atno 3767 bound_to 3762
    2.7943  -19.8755    8.3564 H   0  0  0  0  0  0  0  0  0  0  0  0  # atno 3841 bound_to 3832
    4.9067   -9.2921    4.8782 LP  0  0  0  0  0  0  0  0  0  0  0  0  # atno 4297 bound_to 1298
    3.6481  -10.1895    4.3517 LP  0  0  0  0  0  0  0  0  0  0  0  0  # atno 4298 bound_to 1298
    0.6641   -9.2192    8.1288 LP  0  0  0  0  0  0  0  0  0  0  0  0  # atno 4299 bound_to 2456
    2.1488   -8.5549    7.9834 LP  0  0  0  0  0  0  0  0  0  0  0  0  # atno 4300 bound_to 2456
    2.5152   -9.2344    5.4889 LP  0  0  0  0  0  0  0  0  0  0  0  0  # atno 4301 bound_to 2510
    2.0485   -7.7034    5.8126 LP  0  0  0  0  0  0  0  0  0  0  0  0  # atno 4302 bound_to 2510
   -2.6642  -18.0383   14.4706 LP  0  0  0  0  0  0  0  0  0  0  0  0  # atno 4306 bound_to 3712
   -3.4821  -16.6305   14.3451 LP  0  0  0  0  0  0  0  0  0  0  0  0  # atno 4307 bound_to 3712
    2.6105  -21.1567    9.3056 LP  0  0  0  0  0  0  0  0  0  0  0  0  # atno 4314 bound_to 3832
    1.3909  -20.0894    9.1052 LP  0  0  0  0  0  0  0  0  0  0  0  0  # atno 4315 bound_to 3832
   -5.3046  -21.9399   11.1117 LP  0  0  0  0  0  0  0  0  0  0  0  0  # atno 4318 bound_to 3762
   -3.9460  -22.8053   11.3805 LP  0  0  0  0  0  0  0  0  0  0  0  0  # atno 4319 bound_to 3762
   -4.4716   -5.4389    9.4318 LP  0  0  0  0  0  0  0  0  0  0  0  0  # atno 4320 bound_to 2467
   -5.4301   -5.0853    8.1578 LP  0  0  0  0  0  0  0  0  0  0  0  0  # atno 4321 bound_to 2467

> <Gold.Score>
     Score     S(PLP)   S(hbond)     S(cho)   S(metal)  DE(clash)   DE(tors)     intcor
     44.15     -42.96       0.62       0.00       0.00       0.00       0.34       0.00

> <Gold.PLP.Fitness>
44.1496

> <Gold.PLP.PLP>
-42.9619

> <Gold.PLP.part.hbond>
-1.0000

> <Gold.PLP.part.metal>
0.0000

> <Gold.PLP.part.buried>
-4.5796

> <Gold.PLP.part.nonpolar>
-38.2624

> <Gold.PLP.part.repulsive>
0.0792

> <Gold.PLP.ligand.clash>
0.0000

> <Gold.PLP.ligand.torsion>
0.3422

> <Gold.PLP.Chemscore.Hbond>
0.6240

> <Gold.PLP.Chemscore.CHOScore>
0.0000

> <Gold.PLP.Chemscore.Metal>
0.0000

> <Gold.Chemscore.Hbonds>
donor molecule, donor type, donor heavy atom, donor atom, acceptor molecule, acceptor atom, score
      L1  H    11    32       P1  2398  0.62

> <Gold.PLP.Chemscore.Internal.Correction>
0.0000

