#       Name:                EN300-269527_i002
#       Creating user name   fsindt
#       Creation time:       Wed Mar  1 03:27:00 2023


#       File generated by GOLD software.
#

@<TRIPOS>MOLECULE
EN300-269527_i002
    32    33     1
SMALL
USER_CHARGES


@<TRIPOS>ATOM
      1 C1          -3.6422   0.1028  -0.3003 C.3            1 <1>                0.0000
      2 C2          -2.9591  -1.1698   0.2100 C.3            1 <1>                0.0000
      3 C3          -1.5043  -1.1824  -0.2691 C.3            1 <1>                0.0000
      4 C4          -0.8036   0.0885   0.2183 C.3            1 <1>                0.0000
      5 O5          -1.5070   1.2342  -0.2661 O.3            1 <1>                0.0000
      6 C6          -2.8589   1.3240   0.1882 C.3            1 <1>                0.0000
      7 C7           0.6333   0.1123  -0.3068 C.3            1 <1>                0.0000
      8 C8           1.3348   1.3834   0.1804 C.3            1 <1>                0.0000
      9 C9           2.7937   1.3597  -0.2845 C.3            1 <1>                0.0000
     10 C10          3.4686   0.0889   0.2363 C.3            1 <1>                0.0000
     11 N11          2.7680  -1.0906  -0.2856 N.4            1 <1>                1.0000
     12 C12          1.3883  -1.1122   0.2148 C.3            1 <1>                0.0000
     13 H13         -3.6609   0.0941  -1.3901 H              1 <1>                0.0000
     14 H14         -4.6619   0.1472   0.0820 H              1 <1>                0.0000
     15 H15         -2.9843  -1.1852   1.2996 H              1 <1>                0.0000
     16 H16         -3.4792  -2.0445  -0.1805 H              1 <1>                0.0000
     17 H17         -0.9951  -2.0571   0.1356 H              1 <1>                0.0000
     18 H18         -1.4798  -1.2170  -1.3583 H              1 <1>                0.0000
     19 H19         -0.7928   0.1025   1.3081 H              1 <1>                0.0000
     20 H20         -3.3159   2.2311  -0.2074 H              1 <1>                0.0000
     21 H21         -2.8750   1.3542   1.2777 H              1 <1>                0.0000
     22 H22          0.6228   0.0973  -1.3967 H              1 <1>                0.0000
     23 H23          0.8341   2.2580  -0.2349 H              1 <1>                0.0000
     24 H24          1.2998   1.4246   1.2690 H              1 <1>                0.0000
     25 H25          2.8288   1.3701  -1.3739 H              1 <1>                0.0000
     26 H26          3.3143   2.2343   0.1055 H              1 <1>                0.0000
     27 H27          4.5076   0.0689  -0.0928 H              1 <1>                0.0000
     28 H28          3.4332   0.0796   1.3257 H              1 <1>                0.0000
     29 H29          1.3972  -1.0959   1.3046 H              1 <1>                0.0000
     30 H30          0.8913  -2.0190  -0.1301 H              1 <1>                0.0000
     31 H31          2.7585  -1.0561  -1.2939 H              1 <1>                0.0000
     32 H32          3.2471  -1.9258   0.0159 H              1 <1>                0.0000
@<TRIPOS>BOND
    1    1    2 1     
    2    1    6 1     
    3    1   13 1     
    4    1   14 1     
    5    2    3 1     
    6    2   15 1     
    7    2   16 1     
    8    3    4 1     
    9    3   17 1     
   10    3   18 1     
   11    4    5 1     
   12    4    7 1     
   13    4   19 1     
   14    5    6 1     
   15    6   20 1     
   16    6   21 1     
   17    7    8 1     
   18    7   12 1     
   19    7   22 1     
   20    8    9 1     
   21    8   23 1     
   22    8   24 1     
   23    9   10 1     
   24    9   25 1     
   25    9   26 1     
   26   10   11 1     
   27   10   27 1     
   28   10   28 1     
   29   11   12 1     
   30   11   31 1     
   31   11   32 1     
   32   12   29 1     
   33   12   30 1     
@<TRIPOS>SUBSTRUCTURE
      1 ****           1
@<TRIPOS>SET
DONOR_HYDROGENS      STATIC     ATOMS    <user>   **** ""
2 31 32
ATOM$RED        STATIC     ATOMS    COLORGROUP SYSTEM
2 31 32
