#       Name:                EN300-269527_i002
#       Creating user name   fsindt
#       Creation time:       Wed Mar  1 03:27:06 2023


#       File generated by GOLD software.
#

@<TRIPOS>MOLECULE
EN300-269527_i002|amine_7|mol2|10216|dock20
    32    33     1
SMALL
USER_CHARGES


@<TRIPOS>ATOM
      1 C1           1.2513 -14.7050   7.9553 C.3            1 <1>                0.0000
      2 C2           1.3986 -13.5161   7.0006 C.3            1 <1>                0.0000
      3 C3           0.3178 -12.4797   7.3230 C.3            1 <1>                0.0000
      4 C4           0.4416 -12.0646   8.7914 C.3            1 <1>                0.0000
      5 O5           0.3264 -13.2208   9.6232 O.3            1 <1>                0.0000
      6 C6           1.3389 -14.2040   9.3991 C.3            1 <1>                0.0000
      7 C7          -0.6721 -11.0742   9.1372 C.3            1 <1>                0.0000
      8 C8          -2.0152 -11.8089   9.1785 C.3            1 <1>                0.0000
      9 C9          -3.1107 -10.8261   9.6017 C.3            1 <1>                0.0000
     10 C10         -2.7433 -10.2129  10.9547 C.3            1 <1>                0.0000
     11 N11         -1.4636  -9.5028  10.8428 N.4            1 <1>                1.0000
     12 C12         -0.3952 -10.4518  10.5074 C.3            1 <1>                0.0000
     13 H13          0.2856 -15.1842   7.7939 H              1 <1>                0.0000
     14 H14          2.0504 -15.4225   7.7695 H              1 <1>                0.0000
     15 H15          2.3837 -13.0671   7.1269 H              1 <1>                0.0000
     16 H16          1.2812 -13.8576   5.9722 H              1 <1>                0.0000
     17 H17          0.4495 -11.6057   6.6851 H              1 <1>                0.0000
     18 H18         -0.6667 -12.9139   7.1490 H              1 <1>                0.0000
     19 H19          1.4108 -11.5938   8.9556 H              1 <1>                0.0000
     20 H20          1.1921 -15.0396  10.0835 H              1 <1>                0.0000
     21 H21          2.3200 -13.7611   9.5714 H              1 <1>                0.0000
     22 H22         -0.7094 -10.2898   8.3812 H              1 <1>                0.0000
     23 H23         -2.2439 -12.2059   8.1895 H              1 <1>                0.0000
     24 H24         -1.9614 -12.6264   9.8973 H              1 <1>                0.0000
     25 H25         -3.1988 -10.0360   8.8559 H              1 <1>                0.0000
     26 H26         -4.0603 -11.3543   9.6873 H              1 <1>                0.0000
     27 H27         -3.5213  -9.5128  11.2590 H              1 <1>                0.0000
     28 H28         -2.6557 -11.0037  11.6997 H              1 <1>                0.0000
     29 H29         -0.3576 -11.2375  11.2619 H              1 <1>                0.0000
     30 H30          0.5605  -9.9280  10.4816 H              1 <1>                0.0000
     31 H31         -1.5303  -8.8034  10.1187 H              1 <1>                0.0000
     32 H32         -1.2506  -9.0551  11.7215 H              1 <1>                0.0000
@<TRIPOS>BOND
    1    1    2 1     
    2    1    6 1     
    3    1   13 1     
    4    1   14 1     
    5    2    3 1     
    6    2   15 1     
    7    2   16 1     
    8    3    4 1     
    9    3   17 1     
   10    3   18 1     
   11    4    5 1     
   12    4    7 1     
   13    4   19 1     
   14    5    6 1     
   15    6   20 1     
   16    6   21 1     
   17    7    8 1     
   18    7   12 1     
   19    7   22 1     
   20    8    9 1     
   21    8   23 1     
   22    8   24 1     
   23    9   10 1     
   24    9   25 1     
   25    9   26 1     
   26   10   11 1     
   27   10   27 1     
   28   10   28 1     
   29   11   12 1     
   30   11   31 1     
   31   11   32 1     
   32   12   29 1     
   33   12   30 1     
@<TRIPOS>SUBSTRUCTURE
      1 ****           1
@<TRIPOS>SET
DONOR_HYDROGENS      STATIC     ATOMS    <user>   **** ""
2 31 32
ATOM$RED        STATIC     ATOMS    COLORGROUP SYSTEM
2 31 32
@<TRIPOS>COMMENT
> <Gold.Version>
2022.2.0

> <Gold.Id.Protein>
3pbl|protein|mol2

> <Gold.Protein.RotatedTorsions>
[ 1303 1298 1297 1294 ] final  -58.48 input  179.99 | X-H torsion
[ 2461 2456 2455 2452 ] final  106.80 input   30.03 | X-H torsion
[ 2515 2510 2509 2506 ] final  -75.19 input  -89.99 | X-H torsion
[ 3721 3712 3711 3710 ] final  145.23 input -179.91 | X-H torsion
[ 3841 3832 3831 3830 ] final   61.26 input -179.91 | X-H torsion
[ 3767 3762 3761 3758 ] final  -15.31 input  -89.99 | X-H torsion
[ 2472 2467 2466 2463 ] final  156.39 input  -89.97 | X-H torsion

> <Gold.Protein.ActiveResidues>
 VAL82   VAL86   LEU89   PHE106  VAL107  ASP110  VAL111  MET112  CYS114  THR115 
 CYS181  SER182  ILE183  PHE188  VAL189  ILE190  SER192  SER193  SER196  TRP342 
 PHE345  PHE346  HIS349  VAL350  TYR365  THR369  GLY372  TYR373 

> <Gold.Protein.RotatedAtoms>
    3.4858   -8.9979    3.7772 H   0  0  0  0  0  0  0  0  0  0  0  0  # atno 1303 bound_to 1298
    2.1594   -8.4882    7.9206 H   0  0  0  0  0  0  0  0  0  0  0  0  # atno 2461 bound_to 2456
   -5.4937   -5.2808    8.6788 H   0  0  0  0  0  0  0  0  0  0  0  0  # atno 2472 bound_to 2467
    2.8358   -8.7323    4.4728 H   0  0  0  0  0  0  0  0  0  0  0  0  # atno 2515 bound_to 2510
   -3.1786  -16.9179   13.1580 H   0  0  0  0  0  0  0  0  0  0  0  0  # atno 3721 bound_to 3712
   -5.4376  -22.5274   10.2662 H   0  0  0  0  0  0  0  0  0  0  0  0  # atno 3767 bound_to 3762
    2.4879  -20.9462    9.5048 H   0  0  0  0  0  0  0  0  0  0  0  0  # atno 3841 bound_to 3832
    4.8473   -8.8552    4.6673 LP  0  0  0  0  0  0  0  0  0  0  0  0  # atno 4297 bound_to 1298
    4.0293  -10.2684    4.6472 LP  0  0  0  0  0  0  0  0  0  0  0  0  # atno 4298 bound_to 1298
    0.8427   -8.0743    7.0474 LP  0  0  0  0  0  0  0  0  0  0  0  0  # atno 4299 bound_to 2456
    0.7359   -9.2456    8.1802 LP  0  0  0  0  0  0  0  0  0  0  0  0  # atno 4300 bound_to 2456
    2.2255   -8.8556    5.9821 LP  0  0  0  0  0  0  0  0  0  0  0  0  # atno 4301 bound_to 2510
    2.2352   -7.4110    5.2207 LP  0  0  0  0  0  0  0  0  0  0  0  0  # atno 4302 bound_to 2510
   -2.6113  -18.2176   13.9108 LP  0  0  0  0  0  0  0  0  0  0  0  0  # atno 4306 bound_to 3712
   -3.2467  -16.9767   14.7611 LP  0  0  0  0  0  0  0  0  0  0  0  0  # atno 4307 bound_to 3712
    1.4483  -19.8890    8.8902 LP  0  0  0  0  0  0  0  0  0  0  0  0  # atno 4314 bound_to 3832
    2.9072  -20.1203    8.1940 LP  0  0  0  0  0  0  0  0  0  0  0  0  # atno 4315 bound_to 3832
   -4.6356  -22.0642   11.6113 LP  0  0  0  0  0  0  0  0  0  0  0  0  # atno 4318 bound_to 3762
   -4.0545  -23.2834   10.6933 LP  0  0  0  0  0  0  0  0  0  0  0  0  # atno 4319 bound_to 3762
   -4.2627   -4.7991    7.7201 LP  0  0  0  0  0  0  0  0  0  0  0  0  # atno 4320 bound_to 2467
   -3.9607   -5.3137    9.2402 LP  0  0  0  0  0  0  0  0  0  0  0  0  # atno 4321 bound_to 2467

> <Gold.Score>
     Score     S(PLP)   S(hbond)     S(cho)   S(metal)  DE(clash)   DE(tors)     intcor
     42.81     -43.05       0.00       0.00       0.00       0.00       0.12       0.00

> <Gold.PLP.Fitness>
42.8088

> <Gold.PLP.PLP>
-43.0516

> <Gold.PLP.part.hbond>
-0.5426

> <Gold.PLP.part.metal>
0.0000

> <Gold.PLP.part.buried>
-3.7869

> <Gold.PLP.part.nonpolar>
-39.8387

> <Gold.PLP.part.repulsive>
0.0820

> <Gold.PLP.ligand.clash>
0.0000

> <Gold.PLP.ligand.torsion>
0.1214

> <Gold.PLP.Chemscore.Hbond>
0.0000

> <Gold.PLP.Chemscore.CHOScore>
0.0000

> <Gold.PLP.Chemscore.Metal>
0.0000

> <Gold.PLP.Chemscore.Internal.Correction>
0.0000

