#       Name:                EN300-269527_i002
#       Creating user name   fsindt
#       Creation time:       Wed Mar  1 03:27:04 2023


#       File generated by GOLD software.
#

@<TRIPOS>MOLECULE
EN300-269527_i002|amine_7|mol2|10216|dock15
    32    33     1
SMALL
USER_CHARGES


@<TRIPOS>ATOM
      1 C1          -2.2753 -10.2172  11.0813 C.3            1 <1>                0.0000
      2 C2          -1.2982 -11.1280  11.8311 C.3            1 <1>                0.0000
      3 C3          -1.1314 -12.4339  11.0483 C.3            1 <1>                0.0000
      4 C4          -0.6538 -12.1121   9.6298 C.3            1 <1>                0.0000
      5 O5          -1.5918 -11.2373   8.9998 O.3            1 <1>                0.0000
      6 C6          -1.7536  -9.9811   9.6616 C.3            1 <1>                0.0000
      7 C7          -0.5423 -13.4072   8.8228 C.3            1 <1>                0.0000
      8 C8          -0.0450 -13.0882   7.4100 C.3            1 <1>                0.0000
      9 C9           0.1378 -14.3969   6.6361 C.3            1 <1>                0.0000
     10 C10          1.1046 -15.3042   7.4002 C.3            1 <1>                0.0000
     11 N11          0.5603 -15.5936   8.7323 N.4            1 <1>                1.0000
     12 C12          0.4496 -14.3511   9.5058 C.3            1 <1>                0.0000
     13 H13         -3.2546 -10.6936  11.0350 H              1 <1>                0.0000
     14 H14         -2.3575  -9.2636  11.6025 H              1 <1>                0.0000
     15 H15         -0.3323 -10.6308  11.9209 H              1 <1>                0.0000
     16 H16         -1.6915 -11.3457  12.8241 H              1 <1>                0.0000
     17 H17         -0.3954 -13.0654  11.5459 H              1 <1>                0.0000
     18 H18         -2.0876 -12.9550  11.0012 H              1 <1>                0.0000
     19 H19          0.3213 -11.6272   9.6758 H              1 <1>                0.0000
     20 H20         -2.4664  -9.3685   9.1095 H              1 <1>                0.0000
     21 H21         -0.7929  -9.4683   9.7079 H              1 <1>                0.0000
     22 H22         -1.5202 -13.8854   8.7651 H              1 <1>                0.0000
     23 H23         -0.7760 -12.4617   6.8990 H              1 <1>                0.0000
     24 H24          0.9086 -12.5635   7.4691 H              1 <1>                0.0000
     25 H25         -0.8255 -14.8965   6.5330 H              1 <1>                0.0000
     26 H26          0.5445 -14.1818   5.6480 H              1 <1>                0.0000
     27 H27          1.2371 -16.2369   6.8519 H              1 <1>                0.0000
     28 H28          2.0676 -14.8039   7.5025 H              1 <1>                0.0000
     29 H29          1.4265 -13.8711   9.5632 H              1 <1>                0.0000
     30 H30          0.0986 -14.5801  10.5121 H              1 <1>                0.0000
     31 H31         -0.3529 -16.0122   8.6377 H              1 <1>                0.0000
     32 H32          1.1736 -16.2344   9.2131 H              1 <1>                0.0000
@<TRIPOS>BOND
    1    1    2 1     
    2    1    6 1     
    3    1   13 1     
    4    1   14 1     
    5    2    3 1     
    6    2   15 1     
    7    2   16 1     
    8    3    4 1     
    9    3   17 1     
   10    3   18 1     
   11    4    5 1     
   12    4    7 1     
   13    4   19 1     
   14    5    6 1     
   15    6   20 1     
   16    6   21 1     
   17    7    8 1     
   18    7   12 1     
   19    7   22 1     
   20    8    9 1     
   21    8   23 1     
   22    8   24 1     
   23    9   10 1     
   24    9   25 1     
   25    9   26 1     
   26   10   11 1     
   27   10   27 1     
   28   10   28 1     
   29   11   12 1     
   30   11   31 1     
   31   11   32 1     
   32   12   29 1     
   33   12   30 1     
@<TRIPOS>SUBSTRUCTURE
      1 ****           1
@<TRIPOS>SET
DONOR_HYDROGENS      STATIC     ATOMS    <user>   **** ""
2 31 32
ATOM$RED        STATIC     ATOMS    COLORGROUP SYSTEM
2 31 32
@<TRIPOS>COMMENT
> <Gold.Version>
2022.2.0

> <Gold.Id.Protein>
3pbl|protein|mol2

> <Gold.Protein.RotatedTorsions>
[ 1303 1298 1297 1294 ] final -176.23 input  179.99 | X-H torsion
[ 2461 2456 2455 2452 ] final -130.45 input   30.03 | X-H torsion
[ 2515 2510 2509 2506 ] final   88.54 input  -89.99 | X-H torsion
[ 3721 3712 3711 3710 ] final  -32.38 input -179.91 | X-H torsion
[ 3841 3832 3831 3830 ] final  -15.58 input -179.91 | X-H torsion
[ 3767 3762 3761 3758 ] final   35.92 input  -89.99 | X-H torsion
[ 2472 2467 2466 2463 ] final  -34.78 input  -89.97 | X-H torsion

> <Gold.Protein.ActiveResidues>
 VAL82   VAL86   LEU89   PHE106  VAL107  ASP110  VAL111  MET112  CYS114  THR115 
 CYS181  SER182  ILE183  PHE188  VAL189  ILE190  SER192  SER193  SER196  TRP342 
 PHE345  PHE346  HIS349  VAL350  TYR365  THR369  GLY372  TYR373 

> <Gold.Protein.RotatedAtoms>
    4.8340   -8.8268    4.6477 H   0  0  0  0  0  0  0  0  0  0  0  0  # atno 1303 bound_to 1298
    0.6999   -9.2336    8.1557 H   0  0  0  0  0  0  0  0  0  0  0  0  # atno 2461 bound_to 2456
   -3.6345   -5.0429    8.5861 H   0  0  0  0  0  0  0  0  0  0  0  0  # atno 2472 bound_to 2467
    2.0466   -7.7162    5.8242 H   0  0  0  0  0  0  0  0  0  0  0  0  # atno 2515 bound_to 2510
   -2.6164  -17.6735   14.6116 H   0  0  0  0  0  0  0  0  0  0  0  0  # atno 3721 bound_to 3712
   -4.9036  -23.1126   10.0737 H   0  0  0  0  0  0  0  0  0  0  0  0  # atno 3767 bound_to 3762
    1.6262  -20.3032    9.4627 H   0  0  0  0  0  0  0  0  0  0  0  0  # atno 3841 bound_to 3832
    4.0600  -10.2645    4.6671 LP  0  0  0  0  0  0  0  0  0  0  0  0  # atno 4297 bound_to 1298
    3.4679   -9.0303    3.7767 LP  0  0  0  0  0  0  0  0  0  0  0  0  # atno 4298 bound_to 1298
    2.1551   -8.5208    7.9516 LP  0  0  0  0  0  0  0  0  0  0  0  0  # atno 4299 bound_to 2456
    0.8826   -8.0540    7.0410 LP  0  0  0  0  0  0  0  0  0  0  0  0  # atno 4300 bound_to 2456
    2.7278   -8.0452    4.3773 LP  0  0  0  0  0  0  0  0  0  0  0  0  # atno 4301 bound_to 2510
    2.5226   -9.2381    5.4734 LP  0  0  0  0  0  0  0  0  0  0  0  0  # atno 4302 bound_to 2510
   -3.5602  -16.5554   13.9506 LP  0  0  0  0  0  0  0  0  0  0  0  0  # atno 4306 bound_to 3712
   -2.9469  -17.7666   13.0432 LP  0  0  0  0  0  0  0  0  0  0  0  0  # atno 4307 bound_to 3712
    2.3803  -19.7271    8.1682 LP  0  0  0  0  0  0  0  0  0  0  0  0  # atno 4314 bound_to 3832
    2.9706  -21.0248    8.9646 LP  0  0  0  0  0  0  0  0  0  0  0  0  # atno 4315 bound_to 3832
   -5.2858  -21.9339   11.1373 LP  0  0  0  0  0  0  0  0  0  0  0  0  # atno 4318 bound_to 3762
   -3.9380  -22.8287   11.3598 LP  0  0  0  0  0  0  0  0  0  0  0  0  # atno 4319 bound_to 3762
   -5.0476   -5.4528    9.2944 LP  0  0  0  0  0  0  0  0  0  0  0  0  # atno 4320 bound_to 2467
   -5.0347   -4.8979    7.7586 LP  0  0  0  0  0  0  0  0  0  0  0  0  # atno 4321 bound_to 2467

> <Gold.Score>
     Score     S(PLP)   S(hbond)     S(cho)   S(metal)  DE(clash)   DE(tors)     intcor
     47.67     -41.67       2.00       0.00       0.00       0.00       0.00       0.00

> <Gold.PLP.Fitness>
47.6730

> <Gold.PLP.PLP>
-41.6741

> <Gold.PLP.part.hbond>
-1.0000

> <Gold.PLP.part.metal>
0.0000

> <Gold.PLP.part.buried>
-2.8456

> <Gold.PLP.part.nonpolar>
-37.7249

> <Gold.PLP.part.repulsive>
0.0000

> <Gold.PLP.ligand.clash>
0.0000

> <Gold.PLP.ligand.torsion>
0.0005

> <Gold.PLP.Chemscore.Hbond>
2.0000

> <Gold.PLP.Chemscore.CHOScore>
0.0000

> <Gold.PLP.Chemscore.Metal>
0.0000

> <Gold.Chemscore.Hbonds>
donor molecule, donor type, donor heavy atom, donor atom, acceptor molecule, acceptor atom, score
      L1  H    11    32       P1  1227  2.00

> <Gold.PLP.Chemscore.Internal.Correction>
0.0000

