#       Name:                EN300-269527_i002
#       Creating user name   fsindt
#       Creation time:       Wed Mar  1 03:27:01 2023


#       File generated by GOLD software.
#

@<TRIPOS>MOLECULE
EN300-269527_i002|amine_7|mol2|10216|dock3
    32    33     1
SMALL
USER_CHARGES


@<TRIPOS>ATOM
      1 C1          -1.1614  -9.5127  10.5904 C.3            1 <1>                0.0000
      2 C2          -2.2680 -10.5312  10.8809 C.3            1 <1>                0.0000
      3 C3          -2.0708 -11.7539   9.9796 C.3            1 <1>                0.0000
      4 C4          -0.6729 -12.3318  10.2154 C.3            1 <1>                0.0000
      5 O5           0.3072 -11.3245   9.9572 O.3            1 <1>                0.0000
      6 C6           0.2014 -10.1772  10.8025 C.3            1 <1>                0.0000
      7 C7          -0.4458 -13.5175   9.2754 C.3            1 <1>                0.0000
      8 C8          -0.2983 -13.0098   7.8382 C.3            1 <1>                0.0000
      9 C9           0.0063 -14.1948   6.9173 C.3            1 <1>                0.0000
     10 C10          1.2664 -14.9078   7.4126 C.3            1 <1>                0.0000
     11 N11          1.0527 -15.3924   8.7815 N.4            1 <1>                1.0000
     12 C12          0.8311 -14.2556   9.6833 C.3            1 <1>                0.0000
     13 H13         -1.2431  -9.1704   9.5588 H              1 <1>                0.0000
     14 H14         -1.2616  -8.6633  11.2660 H              1 <1>                0.0000
     15 H15         -2.2173 -10.8366  11.9260 H              1 <1>                0.0000
     16 H16         -3.2400 -10.0815  10.6778 H              1 <1>                0.0000
     17 H17         -2.8215 -12.5074  10.2185 H              1 <1>                0.0000
     18 H18         -2.1709 -11.4569   8.9357 H              1 <1>                0.0000
     19 H19         -0.5872 -12.6658  11.2493 H              1 <1>                0.0000
     20 H20          0.9931  -9.4697  10.5560 H              1 <1>                0.0000
     21 H21          0.2985 -10.4830  11.8442 H              1 <1>                0.0000
     22 H22         -1.2954 -14.1978   9.3358 H              1 <1>                0.0000
     23 H23         -1.2263 -12.5326   7.5232 H              1 <1>                0.0000
     24 H24          0.5184 -12.2898   7.7879 H              1 <1>                0.0000
     25 H25         -0.8334 -14.8898   6.9286 H              1 <1>                0.0000
     26 H26          0.1676 -13.8343   5.9014 H              1 <1>                0.0000
     27 H27          1.4862 -15.7521   6.7591 H              1 <1>                0.0000
     28 H28          2.1054 -14.2121   7.4007 H              1 <1>                0.0000
     29 H29          1.6793 -13.5738   9.6230 H              1 <1>                0.0000
     30 H30          0.7295 -14.6183  10.7062 H              1 <1>                0.0000
     31 H31          0.2459 -15.9979   8.8008 H              1 <1>                0.0000
     32 H32          1.8650 -15.9080   9.0854 H              1 <1>                0.0000
@<TRIPOS>BOND
    1    1    2 1     
    2    1    6 1     
    3    1   13 1     
    4    1   14 1     
    5    2    3 1     
    6    2   15 1     
    7    2   16 1     
    8    3    4 1     
    9    3   17 1     
   10    3   18 1     
   11    4    5 1     
   12    4    7 1     
   13    4   19 1     
   14    5    6 1     
   15    6   20 1     
   16    6   21 1     
   17    7    8 1     
   18    7   12 1     
   19    7   22 1     
   20    8    9 1     
   21    8   23 1     
   22    8   24 1     
   23    9   10 1     
   24    9   25 1     
   25    9   26 1     
   26   10   11 1     
   27   10   27 1     
   28   10   28 1     
   29   11   12 1     
   30   11   31 1     
   31   11   32 1     
   32   12   29 1     
   33   12   30 1     
@<TRIPOS>SUBSTRUCTURE
      1 ****           1
@<TRIPOS>SET
DONOR_HYDROGENS      STATIC     ATOMS    <user>   **** ""
2 31 32
ATOM$RED        STATIC     ATOMS    COLORGROUP SYSTEM
2 31 32
@<TRIPOS>COMMENT
> <Gold.Version>
2022.2.0

> <Gold.Id.Protein>
3pbl|protein|mol2

> <Gold.Protein.RotatedTorsions>
[ 1303 1298 1297 1294 ] final   71.84 input  179.99 | X-H torsion
[ 2461 2456 2455 2452 ] final  -69.83 input   30.03 | X-H torsion
[ 2515 2510 2509 2506 ] final  -10.46 input  -89.99 | X-H torsion
[ 3721 3712 3711 3710 ] final  -94.61 input -179.91 | X-H torsion
[ 3841 3832 3831 3830 ] final -116.43 input -179.91 | X-H torsion
[ 3767 3762 3761 3758 ] final -123.06 input  -89.99 | X-H torsion
[ 2472 2467 2466 2463 ] final  108.24 input  -89.97 | X-H torsion

> <Gold.Protein.ActiveResidues>
 VAL82   VAL86   LEU89   PHE106  VAL107  ASP110  VAL111  MET112  CYS114  THR115 
 CYS181  SER182  ILE183  PHE188  VAL189  ILE190  SER192  SER193  SER196  TRP342 
 PHE345  PHE346  HIS349  VAL350  TYR365  THR369  GLY372  TYR373 

> <Gold.Protein.RotatedAtoms>
    4.1711  -10.2388    4.7350 H   0  0  0  0  0  0  0  0  0  0  0  0  # atno 1303 bound_to 1298
    0.3376   -8.6772    7.4734 H   0  0  0  0  0  0  0  0  0  0  0  0  # atno 2461 bound_to 2456
   -5.3170   -5.0099    7.9810 H   0  0  0  0  0  0  0  0  0  0  0  0  # atno 2472 bound_to 2467
    2.6097   -7.7496    4.5065 H   0  0  0  0  0  0  0  0  0  0  0  0  # atno 2515 bound_to 2510
   -3.0581  -16.8959   14.6545 H   0  0  0  0  0  0  0  0  0  0  0  0  # atno 3721 bound_to 3712
   -4.8063  -21.9839   11.5416 H   0  0  0  0  0  0  0  0  0  0  0  0  # atno 3767 bound_to 3762
    2.1757  -19.5862    8.4804 H   0  0  0  0  0  0  0  0  0  0  0  0  # atno 3841 bound_to 3832
    3.4117   -9.1500    3.7841 LP  0  0  0  0  0  0  0  0  0  0  0  0  # atno 4297 bound_to 1298
    4.7794   -8.7322    4.5724 LP  0  0  0  0  0  0  0  0  0  0  0  0  # atno 4298 bound_to 1298
    1.6001   -9.1560    8.3923 LP  0  0  0  0  0  0  0  0  0  0  0  0  # atno 4299 bound_to 2456
    1.7998   -7.9750    7.2823 LP  0  0  0  0  0  0  0  0  0  0  0  0  # atno 4300 bound_to 2456
    2.6575   -9.2461    5.1577 LP  0  0  0  0  0  0  0  0  0  0  0  0  # atno 4301 bound_to 2510
    2.0295   -8.0037    6.0114 LP  0  0  0  0  0  0  0  0  0  0  0  0  # atno 4302 bound_to 2510
   -3.3816  -17.0013   13.0854 LP  0  0  0  0  0  0  0  0  0  0  0  0  # atno 4306 bound_to 3712
   -2.6155  -18.2184   13.8589 LP  0  0  0  0  0  0  0  0  0  0  0  0  # atno 4307 bound_to 3712
    3.0816  -20.8800    8.7662 LP  0  0  0  0  0  0  0  0  0  0  0  0  # atno 4314 bound_to 3832
    1.6345  -20.7003    9.5013 LP  0  0  0  0  0  0  0  0  0  0  0  0  # atno 4315 bound_to 3832
   -3.9710  -23.2115   10.8619 LP  0  0  0  0  0  0  0  0  0  0  0  0  # atno 4318 bound_to 3762
   -5.3501  -22.6794   10.1678 LP  0  0  0  0  0  0  0  0  0  0  0  0  # atno 4319 bound_to 3762
   -3.7064   -4.9239    8.2363 LP  0  0  0  0  0  0  0  0  0  0  0  0  # atno 4320 bound_to 2467
   -4.6936   -5.4597    9.4217 LP  0  0  0  0  0  0  0  0  0  0  0  0  # atno 4321 bound_to 2467

> <Gold.Score>
     Score     S(PLP)   S(hbond)     S(cho)   S(metal)  DE(clash)   DE(tors)     intcor
     46.99     -41.22       2.00       0.00       0.00       0.00       0.11       0.00

> <Gold.PLP.Fitness>
46.9908

> <Gold.PLP.PLP>
-41.2168

> <Gold.PLP.part.hbond>
-1.0000

> <Gold.PLP.part.metal>
0.0000

> <Gold.PLP.part.buried>
-3.8936

> <Gold.PLP.part.nonpolar>
-37.4645

> <Gold.PLP.part.repulsive>
0.0241

> <Gold.PLP.ligand.clash>
0.0000

> <Gold.PLP.ligand.torsion>
0.1130

> <Gold.PLP.Chemscore.Hbond>
2.0000

> <Gold.PLP.Chemscore.CHOScore>
0.0000

> <Gold.PLP.Chemscore.Metal>
0.0000

> <Gold.Chemscore.Hbonds>
donor molecule, donor type, donor heavy atom, donor atom, acceptor molecule, acceptor atom, score
      L1  H    11    32       P1  1227  2.00

> <Gold.PLP.Chemscore.Internal.Correction>
0.0000

