#       Name:                EN300-269527_i002
#       Creating user name   fsindt
#       Creation time:       Wed Mar  1 03:27:01 2023


#       File generated by GOLD software.
#

@<TRIPOS>MOLECULE
EN300-269527_i002|amine_7|mol2|10216|dock4
    32    33     1
SMALL
USER_CHARGES


@<TRIPOS>ATOM
      1 C1          -1.9665 -10.2620  11.5795 C.3            1 <1>                0.0000
      2 C2          -0.5451  -9.9013  11.1367 C.3            1 <1>                0.0000
      3 C3          -0.0266 -10.9867  10.1884 C.3            1 <1>                0.0000
      4 C4          -0.9877 -11.1206   9.0043 C.3            1 <1>                0.0000
      5 O5          -2.2972 -11.4262   9.4877 O.3            1 <1>                0.0000
      6 C6          -2.8525 -10.4240  10.3417 C.3            1 <1>                0.0000
      7 C7          -0.5088 -12.2443   8.0830 C.3            1 <1>                0.0000
      8 C8           0.8284 -11.8508   7.4488 C.3            1 <1>                0.0000
      9 C9           1.3370 -13.0129   6.5909 C.3            1 <1>                0.0000
     10 C10          1.4538 -14.2676   7.4591 C.3            1 <1>                0.0000
     11 N11          0.1382 -14.6068   8.0147 N.4            1 <1>                1.0000
     12 C12         -0.3235 -13.5275   8.8958 C.3            1 <1>                0.0000
     13 H13         -1.9473 -11.1974  12.1387 H              1 <1>                0.0000
     14 H14         -2.3640  -9.4674  12.2107 H              1 <1>                0.0000
     15 H15         -0.5567  -8.9413  10.6205 H              1 <1>                0.0000
     16 H16          0.1043  -9.8394  12.0099 H              1 <1>                0.0000
     17 H17          0.9631 -10.7103   9.8248 H              1 <1>                0.0000
     18 H18          0.0317 -11.9368  10.7195 H              1 <1>                0.0000
     19 H19         -1.0145 -10.1825   8.4501 H              1 <1>                0.0000
     20 H20         -3.8549 -10.7226  10.6487 H              1 <1>                0.0000
     21 H21         -2.9038  -9.4767   9.8049 H              1 <1>                0.0000
     22 H22         -1.2478 -12.4124   7.2995 H              1 <1>                0.0000
     23 H23          0.6896 -10.9693   6.8230 H              1 <1>                0.0000
     24 H24          1.5533 -11.6321   8.2329 H              1 <1>                0.0000
     25 H25          0.6365 -13.1978   5.7765 H              1 <1>                0.0000
     26 H26          2.3151 -12.7617   6.1807 H              1 <1>                0.0000
     27 H27          1.8158 -15.0969   6.8514 H              1 <1>                0.0000
     28 H28          2.1546 -14.0817   8.2730 H              1 <1>                0.0000
     29 H29          0.4151 -13.3574   9.6791 H              1 <1>                0.0000
     30 H30         -1.2738 -13.8104   9.3489 H              1 <1>                0.0000
     31 H31         -0.5219 -14.7306   7.2618 H              1 <1>                0.0000
     32 H32          0.2080 -15.4638   8.5425 H              1 <1>                0.0000
@<TRIPOS>BOND
    1    1    2 1     
    2    1    6 1     
    3    1   13 1     
    4    1   14 1     
    5    2    3 1     
    6    2   15 1     
    7    2   16 1     
    8    3    4 1     
    9    3   17 1     
   10    3   18 1     
   11    4    5 1     
   12    4    7 1     
   13    4   19 1     
   14    5    6 1     
   15    6   20 1     
   16    6   21 1     
   17    7    8 1     
   18    7   12 1     
   19    7   22 1     
   20    8    9 1     
   21    8   23 1     
   22    8   24 1     
   23    9   10 1     
   24    9   25 1     
   25    9   26 1     
   26   10   11 1     
   27   10   27 1     
   28   10   28 1     
   29   11   12 1     
   30   11   31 1     
   31   11   32 1     
   32   12   29 1     
   33   12   30 1     
@<TRIPOS>SUBSTRUCTURE
      1 ****           1
@<TRIPOS>SET
DONOR_HYDROGENS      STATIC     ATOMS    <user>   **** ""
2 31 32
ATOM$RED        STATIC     ATOMS    COLORGROUP SYSTEM
2 31 32
@<TRIPOS>COMMENT
> <Gold.Version>
2022.2.0

> <Gold.Id.Protein>
3pbl|protein|mol2

> <Gold.Protein.RotatedTorsions>
[ 1303 1298 1297 1294 ] final -136.38 input  179.99 | X-H torsion
[ 2461 2456 2455 2452 ] final   53.85 input   30.03 | X-H torsion
[ 2515 2510 2509 2506 ] final  -36.11 input  -89.99 | X-H torsion
[ 3721 3712 3711 3710 ] final  -63.09 input -179.91 | X-H torsion
[ 3841 3832 3831 3830 ] final  -44.99 input -179.91 | X-H torsion
[ 3767 3762 3761 3758 ] final  -31.65 input  -89.99 | X-H torsion
[ 2472 2467 2466 2463 ] final -145.02 input  -89.97 | X-H torsion

> <Gold.Protein.ActiveResidues>
 VAL82   VAL86   LEU89   PHE106  VAL107  ASP110  VAL111  MET112  CYS114  THR115 
 CYS181  SER182  ILE183  PHE188  VAL189  ILE190  SER192  SER193  SER196  TRP342 
 PHE345  PHE346  HIS349  VAL350  TYR365  THR369  GLY372  TYR373 

> <Gold.Protein.RotatedAtoms>
    4.4492   -8.4973    4.2525 H   0  0  0  0  0  0  0  0  0  0  0  0  # atno 1303 bound_to 1298
    1.8455   -7.9938    7.3171 H   0  0  0  0  0  0  0  0  0  0  0  0  # atno 2461 bound_to 2456
   -4.9036   -5.4629    9.3643 H   0  0  0  0  0  0  0  0  0  0  0  0  # atno 2472 bound_to 2467
    2.7491   -8.1174    4.3641 H   0  0  0  0  0  0  0  0  0  0  0  0  # atno 2515 bound_to 2510
   -2.8229  -17.2904   14.7568 H   0  0  0  0  0  0  0  0  0  0  0  0  # atno 3721 bound_to 3712
   -5.5026  -22.3332   10.4393 H   0  0  0  0  0  0  0  0  0  0  0  0  # atno 3767 bound_to 3762
    1.5655  -19.9609    9.1938 H   0  0  0  0  0  0  0  0  0  0  0  0  # atno 3841 bound_to 3832
    4.5797   -9.9824    4.9188 LP  0  0  0  0  0  0  0  0  0  0  0  0  # atno 4297 bound_to 1298
    3.3331   -9.6420    3.9204 LP  0  0  0  0  0  0  0  0  0  0  0  0  # atno 4298 bound_to 1298
    0.3472   -8.6333    7.4329 LP  0  0  0  0  0  0  0  0  0  0  0  0  # atno 4299 bound_to 2456
    1.5452   -9.1808    8.3980 LP  0  0  0  0  0  0  0  0  0  0  0  0  # atno 4300 bound_to 2456
    2.4903   -9.2197    5.5405 LP  0  0  0  0  0  0  0  0  0  0  0  0  # atno 4301 bound_to 2510
    2.0572   -7.6622    5.7711 LP  0  0  0  0  0  0  0  0  0  0  0  0  # atno 4302 bound_to 2510
   -3.5366  -16.6730   13.4579 LP  0  0  0  0  0  0  0  0  0  0  0  0  # atno 4306 bound_to 3712
   -2.7320  -18.0912   13.3682 LP  0  0  0  0  0  0  0  0  0  0  0  0  # atno 4307 bound_to 3712
    2.7874  -19.9923    8.1536 LP  0  0  0  0  0  0  0  0  0  0  0  0  # atno 4314 bound_to 3832
    2.6336  -21.1551    9.2898 LP  0  0  0  0  0  0  0  0  0  0  0  0  # atno 4315 bound_to 3832
   -4.4138  -22.2096   11.6501 LP  0  0  0  0  0  0  0  0  0  0  0  0  # atno 4318 bound_to 3762
   -4.2113  -23.3321   10.4815 LP  0  0  0  0  0  0  0  0  0  0  0  0  # atno 4319 bound_to 3762
   -5.1665   -4.9415    7.8394 LP  0  0  0  0  0  0  0  0  0  0  0  0  # atno 4320 bound_to 2467
   -3.6469   -4.9892    8.4355 LP  0  0  0  0  0  0  0  0  0  0  0  0  # atno 4321 bound_to 2467

> <Gold.Score>
     Score     S(PLP)   S(hbond)     S(cho)   S(metal)  DE(clash)   DE(tors)     intcor
     41.02     -41.10       0.00       0.00       0.00       0.00       0.04       0.00

> <Gold.PLP.Fitness>
41.0235

> <Gold.PLP.PLP>
-41.0988

> <Gold.PLP.part.hbond>
0.0000

> <Gold.PLP.part.metal>
0.0000

> <Gold.PLP.part.buried>
-5.1100

> <Gold.PLP.part.nonpolar>
-36.5687

> <Gold.PLP.part.repulsive>
0.0000

> <Gold.PLP.ligand.clash>
0.0000

> <Gold.PLP.ligand.torsion>
0.0377

> <Gold.PLP.Chemscore.Hbond>
0.0000

> <Gold.PLP.Chemscore.CHOScore>
0.0000

> <Gold.PLP.Chemscore.Metal>
0.0000

> <Gold.PLP.Chemscore.Internal.Correction>
0.0000

