#       Name:                EN300-269527_i002
#       Creating user name   fsindt
#       Creation time:       Wed Mar  1 03:27:05 2023


#       File generated by GOLD software.
#

@<TRIPOS>MOLECULE
EN300-269527_i002|amine_7|mol2|10216|dock16
    32    33     1
SMALL
USER_CHARGES


@<TRIPOS>ATOM
      1 C1          -2.5794 -10.3601  11.0585 C.3            1 <1>                0.0000
      2 C2          -1.2385  -9.6198  11.0838 C.3            1 <1>                0.0000
      3 C3          -0.1316 -10.5754  10.6282 C.3            1 <1>                0.0000
      4 C4          -0.4726 -11.1123   9.2357 C.3            1 <1>                0.0000
      5 O5          -1.7448 -11.7619   9.2756 O.3            1 <1>                0.0000
      6 C6          -2.8258 -10.9053   9.6494 C.3            1 <1>                0.0000
      7 C7           0.5982 -12.1138   8.7986 C.3            1 <1>                0.0000
      8 C8           0.5040 -13.3736   9.6642 C.3            1 <1>                0.0000
      9 C9           1.5269 -14.3996   9.1682 C.3            1 <1>                0.0000
     10 C10          1.2708 -14.6924   7.6882 C.3            1 <1>                0.0000
     11 N11          1.4014 -13.4542   6.9110 N.4            1 <1>                1.0000
     12 C12          0.3767 -12.4914   7.3323 C.3            1 <1>                0.0000
     13 H13         -2.5528 -11.1862  11.7692 H              1 <1>                0.0000
     14 H14         -3.3805  -9.6721  11.3282 H              1 <1>                0.0000
     15 H15         -1.2818  -8.7642  10.4099 H              1 <1>                0.0000
     16 H16         -1.0302  -9.2772  12.0974 H              1 <1>                0.0000
     17 H17          0.8179 -10.0413  10.5902 H              1 <1>                0.0000
     18 H18         -0.0555 -11.4058  11.3302 H              1 <1>                0.0000
     19 H19         -0.5087 -10.2856   8.5262 H              1 <1>                0.0000
     20 H20         -3.7583 -11.4697   9.6359 H              1 <1>                0.0000
     21 H21         -2.8927 -10.0759   8.9453 H              1 <1>                0.0000
     22 H22          1.5850 -11.6654   8.9146 H              1 <1>                0.0000
     23 H23          0.7170 -13.1191  10.7025 H              1 <1>                0.0000
     24 H24         -0.4991 -13.7933   9.5890 H              1 <1>                0.0000
     25 H25          2.5332 -13.9991   9.2912 H              1 <1>                0.0000
     26 H26          1.4278 -15.3199   9.7438 H              1 <1>                0.0000
     27 H27          1.9974 -15.4228   7.3319 H              1 <1>                0.0000
     28 H28          0.2645 -15.0931   7.5664 H              1 <1>                0.0000
     29 H29         -0.6106 -12.9389   7.2181 H              1 <1>                0.0000
     30 H30          0.4429 -11.5967   6.7132 H              1 <1>                0.0000
     31 H31          2.3166 -13.0578   7.0630 H              1 <1>                0.0000
     32 H32          1.2849 -13.6601   5.9302 H              1 <1>                0.0000
@<TRIPOS>BOND
    1    1    2 1     
    2    1    6 1     
    3    1   13 1     
    4    1   14 1     
    5    2    3 1     
    6    2   15 1     
    7    2   16 1     
    8    3    4 1     
    9    3   17 1     
   10    3   18 1     
   11    4    5 1     
   12    4    7 1     
   13    4   19 1     
   14    5    6 1     
   15    6   20 1     
   16    6   21 1     
   17    7    8 1     
   18    7   12 1     
   19    7   22 1     
   20    8    9 1     
   21    8   23 1     
   22    8   24 1     
   23    9   10 1     
   24    9   25 1     
   25    9   26 1     
   26   10   11 1     
   27   10   27 1     
   28   10   28 1     
   29   11   12 1     
   30   11   31 1     
   31   11   32 1     
   32   12   29 1     
   33   12   30 1     
@<TRIPOS>SUBSTRUCTURE
      1 ****           1
@<TRIPOS>SET
DONOR_HYDROGENS      STATIC     ATOMS    <user>   **** ""
2 31 32
ATOM$RED        STATIC     ATOMS    COLORGROUP SYSTEM
2 31 32
@<TRIPOS>COMMENT
> <Gold.Version>
2022.2.0

> <Gold.Id.Protein>
3pbl|protein|mol2

> <Gold.Protein.RotatedTorsions>
[ 1303 1298 1297 1294 ] final  165.08 input  179.99 | X-H torsion
[ 2461 2456 2455 2452 ] final  -62.93 input   30.03 | X-H torsion
[ 2515 2510 2509 2506 ] final -108.54 input  -89.99 | X-H torsion
[ 3721 3712 3711 3710 ] final  -15.75 input -179.91 | X-H torsion
[ 3841 3832 3831 3830 ] final   22.86 input -179.91 | X-H torsion
[ 3767 3762 3761 3758 ] final -161.68 input  -89.99 | X-H torsion
[ 2472 2467 2466 2463 ] final   61.22 input  -89.97 | X-H torsion

> <Gold.Protein.ActiveResidues>
 VAL82   VAL86   LEU89   PHE106  VAL107  ASP110  VAL111  MET112  CYS114  THR115 
 CYS181  SER182  ILE183  PHE188  VAL189  ILE190  SER192  SER193  SER196  TRP342 
 PHE345  PHE346  HIS349  VAL350  TYR365  THR369  GLY372  TYR373 

> <Gold.Protein.RotatedAtoms>
    4.9059   -9.0839    4.7974 H   0  0  0  0  0  0  0  0  0  0  0  0  # atno 1303 bound_to 1298
    0.3581   -8.5947    7.3981 H   0  0  0  0  0  0  0  0  0  0  0  0  # atno 2461 bound_to 2456
   -4.6629   -4.8223    7.6602 H   0  0  0  0  0  0  0  0  0  0  0  0  # atno 2472 bound_to 2467
    2.7663   -9.1248    4.8382 H   0  0  0  0  0  0  0  0  0  0  0  0  # atno 2515 bound_to 2510
   -2.5353  -17.8409   14.4439 H   0  0  0  0  0  0  0  0  0  0  0  0  # atno 3721 bound_to 3712
   -4.2880  -22.3158   11.6420 H   0  0  0  0  0  0  0  0  0  0  0  0  # atno 3767 bound_to 3762
    1.9771  -20.7234    9.6216 H   0  0  0  0  0  0  0  0  0  0  0  0  # atno 3841 bound_to 3832
    3.8104  -10.2551    4.4900 LP  0  0  0  0  0  0  0  0  0  0  0  0  # atno 4297 bound_to 1298
    3.6456   -8.7824    3.8040 LP  0  0  0  0  0  0  0  0  0  0  0  0  # atno 4298 bound_to 1298
    1.4961   -9.2007    8.4007 LP  0  0  0  0  0  0  0  0  0  0  0  0  # atno 4299 bound_to 2456
    1.8833   -8.0128    7.3492 LP  0  0  0  0  0  0  0  0  0  0  0  0  # atno 4300 bound_to 2456
    2.0689   -8.3502    6.0949 LP  0  0  0  0  0  0  0  0  0  0  0  0  # atno 4301 bound_to 2510
    2.4613   -7.5237    4.7423 LP  0  0  0  0  0  0  0  0  0  0  0  0  # atno 4302 bound_to 2510
   -3.5165  -16.5896   14.2218 LP  0  0  0  0  0  0  0  0  0  0  0  0  # atno 4306 bound_to 3712
   -3.0841  -17.5391   12.9655 LP  0  0  0  0  0  0  0  0  0  0  0  0  # atno 4307 bound_to 3712
    1.8188  -19.6456    8.4429 LP  0  0  0  0  0  0  0  0  0  0  0  0  # atno 4314 bound_to 3832
    3.1268  -20.6211    8.5064 LP  0  0  0  0  0  0  0  0  0  0  0  0  # atno 4315 bound_to 3832
   -4.3282  -23.3338   10.3657 LP  0  0  0  0  0  0  0  0  0  0  0  0  # atno 4318 bound_to 3762
   -5.5110  -22.2254   10.5637 LP  0  0  0  0  0  0  0  0  0  0  0  0  # atno 4319 bound_to 3762
   -3.7186   -5.1801    8.9435 LP  0  0  0  0  0  0  0  0  0  0  0  0  # atno 4320 bound_to 2467
   -5.3353   -5.3911    9.0353 LP  0  0  0  0  0  0  0  0  0  0  0  0  # atno 4321 bound_to 2467

> <Gold.Score>
     Score     S(PLP)   S(hbond)     S(cho)   S(metal)  DE(clash)   DE(tors)     intcor
     42.27     -42.42       0.00       0.00       0.00       0.00       0.07       0.00

> <Gold.PLP.Fitness>
42.2733

> <Gold.PLP.PLP>
-42.4201

> <Gold.PLP.part.hbond>
0.0000

> <Gold.PLP.part.metal>
0.0000

> <Gold.PLP.part.buried>
-4.5905

> <Gold.PLP.part.nonpolar>
-39.3379

> <Gold.PLP.part.repulsive>
0.0389

> <Gold.PLP.ligand.clash>
0.0000

> <Gold.PLP.ligand.torsion>
0.0734

> <Gold.PLP.Chemscore.Hbond>
0.0000

> <Gold.PLP.Chemscore.CHOScore>
0.0000

> <Gold.PLP.Chemscore.Metal>
0.0000

> <Gold.PLP.Chemscore.Internal.Correction>
0.0000

