#       Name:                EN300-269527_i002
#       Creating user name   fsindt
#       Creation time:       Wed Mar  1 03:27:03 2023


#       File generated by GOLD software.
#

@<TRIPOS>MOLECULE
EN300-269527_i002|amine_7|mol2|10216|dock9
    32    33     1
SMALL
USER_CHARGES


@<TRIPOS>ATOM
      1 C1          -0.1455 -23.2128  13.7134 C.3            1 <1>                0.0000
      2 C2           0.9572 -22.7754  14.6826 C.3            1 <1>                0.0000
      3 C3           1.3985 -21.3522  14.3278 C.3            1 <1>                0.0000
      4 C4           0.1828 -20.4229  14.3733 C.3            1 <1>                0.0000
      5 O5          -0.8166 -20.9038  13.4721 O.3            1 <1>                0.0000
      6 C6          -1.3015 -22.2117  13.7825 C.3            1 <1>                0.0000
      7 C7           0.6042 -19.0109  13.9616 C.3            1 <1>                0.0000
      8 C8           1.5878 -18.4498  14.9925 C.3            1 <1>                0.0000
      9 C9           2.0632 -17.0691  14.5312 C.3            1 <1>                0.0000
     10 C10          2.6878 -17.1896  13.1395 C.3            1 <1>                0.0000
     11 N11          1.6903 -17.7061  12.1946 N.4            1 <1>                1.0000
     12 C12          1.2828 -19.0593  12.5910 C.3            1 <1>                0.0000
     13 H13          0.2517 -23.2411  12.6987 H              1 <1>                0.0000
     14 H14         -0.5042 -24.2034  13.9928 H              1 <1>                0.0000
     15 H15          0.5744 -22.7948  15.7029 H              1 <1>                0.0000
     16 H16          1.8070 -23.4526  14.5976 H              1 <1>                0.0000
     17 H17          2.1440 -21.0122  15.0467 H              1 <1>                0.0000
     18 H18          1.8268 -21.3429  13.3255 H              1 <1>                0.0000
     19 H19         -0.2207 -20.4014  15.3856 H              1 <1>                0.0000
     20 H20         -2.0707 -22.4943  13.0638 H              1 <1>                0.0000
     21 H21         -1.7244 -22.2136  14.7872 H              1 <1>                0.0000
     22 H22         -0.2753 -18.3689  13.9106 H              1 <1>                0.0000
     23 H23          1.0914 -18.3602  15.9588 H              1 <1>                0.0000
     24 H24          2.4435 -19.1189  15.0817 H              1 <1>                0.0000
     25 H25          1.2144 -16.3864  14.4914 H              1 <1>                0.0000
     26 H26          2.8059 -16.6871  15.2316 H              1 <1>                0.0000
     27 H27          3.0275 -16.2083  12.8080 H              1 <1>                0.0000
     28 H28          3.5365 -17.8722  13.1805 H              1 <1>                0.0000
     29 H29          2.1615 -19.7021  12.6437 H              1 <1>                0.0000
     30 H30          0.5852 -19.4586  11.8546 H              1 <1>                0.0000
     31 H31          0.8838 -17.0998  12.1937 H              1 <1>                0.0000
     32 H32          2.0889 -17.7338  11.2682 H              1 <1>                0.0000
@<TRIPOS>BOND
    1    1    2 1     
    2    1    6 1     
    3    1   13 1     
    4    1   14 1     
    5    2    3 1     
    6    2   15 1     
    7    2   16 1     
    8    3    4 1     
    9    3   17 1     
   10    3   18 1     
   11    4    5 1     
   12    4    7 1     
   13    4   19 1     
   14    5    6 1     
   15    6   20 1     
   16    6   21 1     
   17    7    8 1     
   18    7   12 1     
   19    7   22 1     
   20    8    9 1     
   21    8   23 1     
   22    8   24 1     
   23    9   10 1     
   24    9   25 1     
   25    9   26 1     
   26   10   11 1     
   27   10   27 1     
   28   10   28 1     
   29   11   12 1     
   30   11   31 1     
   31   11   32 1     
   32   12   29 1     
   33   12   30 1     
@<TRIPOS>SUBSTRUCTURE
      1 ****           1
@<TRIPOS>SET
DONOR_HYDROGENS      STATIC     ATOMS    <user>   **** ""
2 31 32
ATOM$RED        STATIC     ATOMS    COLORGROUP SYSTEM
2 31 32
@<TRIPOS>COMMENT
> <Gold.Version>
2022.2.0

> <Gold.Id.Protein>
3pbl|protein|mol2

> <Gold.Protein.RotatedTorsions>
[ 1303 1298 1297 1294 ] final -127.13 input  179.99 | X-H torsion
[ 2461 2456 2455 2452 ] final   40.82 input   30.03 | X-H torsion
[ 2515 2510 2509 2506 ] final    4.76 input  -89.99 | X-H torsion
[ 3721 3712 3711 3710 ] final  -47.74 input -179.91 | X-H torsion
[ 3841 3832 3831 3830 ] final   29.96 input -179.91 | X-H torsion
[ 3767 3762 3761 3758 ] final   72.17 input  -89.99 | X-H torsion
[ 2472 2467 2466 2463 ] final  -28.24 input  -89.97 | X-H torsion

> <Gold.Protein.ActiveResidues>
 VAL82   VAL86   LEU89   PHE106  VAL107  ASP110  VAL111  MET112  CYS114  THR115 
 CYS181  SER182  ILE183  PHE188  VAL189  ILE190  SER192  SER193  SER196  TRP342 
 PHE345  PHE346  HIS349  VAL350  TYR365  THR369  GLY372  TYR373 

> <Gold.Protein.RotatedAtoms>
    4.3294   -8.4771    4.1614 H   0  0  0  0  0  0  0  0  0  0  0  0  # atno 1303 bound_to 1298
    1.6742   -7.9382    7.2018 H   0  0  0  0  0  0  0  0  0  0  0  0  # atno 2461 bound_to 2456
   -3.6397   -5.0070    8.4849 H   0  0  0  0  0  0  0  0  0  0  0  0  # atno 2472 bound_to 2467
    2.5083   -7.5818    4.6611 H   0  0  0  0  0  0  0  0  0  0  0  0  # atno 2515 bound_to 2510
   -2.7128  -17.4893   14.7135 H   0  0  0  0  0  0  0  0  0  0  0  0  # atno 3721 bound_to 3712
   -4.4057  -23.3237   10.3012 H   0  0  0  0  0  0  0  0  0  0  0  0  # atno 3767 bound_to 3762
    2.0656  -20.7838    9.6209 H   0  0  0  0  0  0  0  0  0  0  0  0  # atno 3841 bound_to 3832
    4.6773   -9.8683    4.9423 LP  0  0  0  0  0  0  0  0  0  0  0  0  # atno 4297 bound_to 1298
    3.3554   -9.7762    3.9880 LP  0  0  0  0  0  0  0  0  0  0  0  0  # atno 4298 bound_to 1298
    0.3312   -8.7870    7.5808 LP  0  0  0  0  0  0  0  0  0  0  0  0  # atno 4299 bound_to 2456
    1.7325   -9.0828    8.3654 LP  0  0  0  0  0  0  0  0  0  0  0  0  # atno 4300 bound_to 2456
    2.7375   -9.1755    4.9319 LP  0  0  0  0  0  0  0  0  0  0  0  0  # atno 4301 bound_to 2510
    2.0509   -8.2422    6.0825 LP  0  0  0  0  0  0  0  0  0  0  0  0  # atno 4302 bound_to 2510
   -3.5655  -16.5856   13.6965 LP  0  0  0  0  0  0  0  0  0  0  0  0  # atno 4306 bound_to 3712
   -2.8302  -17.9490   13.1796 LP  0  0  0  0  0  0  0  0  0  0  0  0  # atno 4307 bound_to 3712
    1.7294  -19.6675    8.5178 LP  0  0  0  0  0  0  0  0  0  0  0  0  # atno 4314 bound_to 3832
    3.1138  -20.5294    8.4323 LP  0  0  0  0  0  0  0  0  0  0  0  0  # atno 4315 bound_to 3832
   -5.5039  -22.1648   10.6442 LP  0  0  0  0  0  0  0  0  0  0  0  0  # atno 4318 bound_to 3762
   -4.2176  -22.3868   11.6254 LP  0  0  0  0  0  0  0  0  0  0  0  0  # atno 4319 bound_to 3762
   -4.9524   -5.4602    9.3439 LP  0  0  0  0  0  0  0  0  0  0  0  0  # atno 4320 bound_to 2467
   -5.1246   -4.9264    7.8103 LP  0  0  0  0  0  0  0  0  0  0  0  0  # atno 4321 bound_to 2467

> <Gold.Score>
     Score     S(PLP)   S(hbond)     S(cho)   S(metal)  DE(clash)   DE(tors)     intcor
     36.81     -30.86       2.00       0.00       0.00       0.00       0.02       0.00

> <Gold.PLP.Fitness>
36.8066

> <Gold.PLP.PLP>
-30.8554

> <Gold.PLP.part.hbond>
-1.0000

> <Gold.PLP.part.metal>
0.0000

> <Gold.PLP.part.buried>
-2.8799

> <Gold.PLP.part.nonpolar>
-27.0363

> <Gold.PLP.part.repulsive>
0.0000

> <Gold.PLP.ligand.clash>
0.0000

> <Gold.PLP.ligand.torsion>
0.0244

> <Gold.PLP.Chemscore.Hbond>
2.0000

> <Gold.PLP.Chemscore.CHOScore>
0.0000

> <Gold.PLP.Chemscore.Metal>
0.0000

> <Gold.Chemscore.Hbonds>
donor molecule, donor type, donor heavy atom, donor atom, acceptor molecule, acceptor atom, score
      L1  H    11    32       P1  1227  2.00

> <Gold.PLP.Chemscore.Internal.Correction>
0.0000

