#       Name:                EN300-269527_i002
#       Creating user name   fsindt
#       Creation time:       Wed Mar  1 03:27:03 2023


#       File generated by GOLD software.
#

@<TRIPOS>MOLECULE
EN300-269527_i002|amine_7|mol2|10216|dock10
    32    33     1
SMALL
USER_CHARGES


@<TRIPOS>ATOM
      1 C1           0.7331 -14.2536   6.8855 C.3            1 <1>                0.0000
      2 C2           1.4178 -12.8959   6.7002 C.3            1 <1>                0.0000
      3 C3           0.6116 -11.8246   7.4409 C.3            1 <1>                0.0000
      4 C4           0.4896 -12.2173   8.9156 C.3            1 <1>                0.0000
      5 O5          -0.1272 -13.5025   9.0153 O.3            1 <1>                0.0000
      6 C6           0.6063 -14.5525   8.3815 C.3            1 <1>                0.0000
      7 C7          -0.3653 -11.1827   9.6501 C.3            1 <1>                0.0000
      8 C8          -1.6144 -10.8700   8.8211 C.3            1 <1>                0.0000
      9 C9          -2.5008  -9.8939   9.5999 C.3            1 <1>                0.0000
     10 C10         -2.8454 -10.5015  10.9614 C.3            1 <1>                0.0000
     11 N11         -1.6116 -10.7527  11.7156 N.4            1 <1>                1.0000
     12 C12         -0.7891 -11.7425  11.0097 C.3            1 <1>                0.0000
     13 H13         -0.2587 -14.2259   6.4343 H              1 <1>                0.0000
     14 H14          1.3298 -15.0306   6.4080 H              1 <1>                0.0000
     15 H15          2.4280 -12.9385   7.1074 H              1 <1>                0.0000
     16 H16          1.4609 -12.6510   5.6390 H              1 <1>                0.0000
     17 H17          1.1216 -10.8646   7.3607 H              1 <1>                0.0000
     18 H18         -0.3827 -11.7478   7.0009 H              1 <1>                0.0000
     19 H19          1.4818 -12.2545   9.3652 H              1 <1>                0.0000
     20 H20          0.0814 -15.4977   8.5202 H              1 <1>                0.0000
     21 H21          1.6001 -14.6202   8.8242 H              1 <1>                0.0000
     22 H22          0.2128 -10.2701   9.7957 H              1 <1>                0.0000
     23 H23         -1.3195 -10.4184   7.8739 H              1 <1>                0.0000
     24 H24         -2.1657 -11.7909   8.6312 H              1 <1>                0.0000
     25 H25         -1.9674  -8.9544   9.7452 H              1 <1>                0.0000
     26 H26         -3.4181  -9.7097   9.0407 H              1 <1>                0.0000
     27 H27         -3.4767  -9.8091  11.5184 H              1 <1>                0.0000
     28 H28         -3.3790 -11.4407  10.8150 H              1 <1>                0.0000
     29 H29         -1.3664 -12.6552  10.8623 H              1 <1>                0.0000
     30 H30          0.0979 -11.9664  11.6024 H              1 <1>                0.0000
     31 H31         -1.0941  -9.8916  11.8084 H              1 <1>                0.0000
     32 H32         -1.8446 -11.1032  12.6326 H              1 <1>                0.0000
@<TRIPOS>BOND
    1    1    2 1     
    2    1    6 1     
    3    1   13 1     
    4    1   14 1     
    5    2    3 1     
    6    2   15 1     
    7    2   16 1     
    8    3    4 1     
    9    3   17 1     
   10    3   18 1     
   11    4    5 1     
   12    4    7 1     
   13    4   19 1     
   14    5    6 1     
   15    6   20 1     
   16    6   21 1     
   17    7    8 1     
   18    7   12 1     
   19    7   22 1     
   20    8    9 1     
   21    8   23 1     
   22    8   24 1     
   23    9   10 1     
   24    9   25 1     
   25    9   26 1     
   26   10   11 1     
   27   10   27 1     
   28   10   28 1     
   29   11   12 1     
   30   11   31 1     
   31   11   32 1     
   32   12   29 1     
   33   12   30 1     
@<TRIPOS>SUBSTRUCTURE
      1 ****           1
@<TRIPOS>SET
DONOR_HYDROGENS      STATIC     ATOMS    <user>   **** ""
2 31 32
ATOM$RED        STATIC     ATOMS    COLORGROUP SYSTEM
2 31 32
@<TRIPOS>COMMENT
> <Gold.Version>
2022.2.0

> <Gold.Id.Protein>
3pbl|protein|mol2

> <Gold.Protein.RotatedTorsions>
[ 1303 1298 1297 1294 ] final   38.08 input  179.99 | X-H torsion
[ 2461 2456 2455 2452 ] final  -30.54 input   30.03 | X-H torsion
[ 2515 2510 2509 2506 ] final  128.06 input  -89.99 | X-H torsion
[ 3721 3712 3711 3710 ] final -164.78 input -179.91 | X-H torsion
[ 3841 3832 3831 3830 ] final   86.53 input -179.91 | X-H torsion
[ 3767 3762 3761 3758 ] final  -96.78 input  -89.99 | X-H torsion
[ 2472 2467 2466 2463 ] final -146.07 input  -89.97 | X-H torsion

> <Gold.Protein.ActiveResidues>
 VAL82   VAL86   LEU89   PHE106  VAL107  ASP110  VAL111  MET112  CYS114  THR115 
 CYS181  SER182  ILE183  PHE188  VAL189  ILE190  SER192  SER193  SER196  TRP342 
 PHE345  PHE346  HIS349  VAL350  TYR365  THR369  GLY372  TYR373 

> <Gold.Protein.RotatedAtoms>
    3.7238  -10.2269    4.4195 H   0  0  0  0  0  0  0  0  0  0  0  0  # atno 1303 bound_to 1298
    0.6160   -8.2284    7.1223 H   0  0  0  0  0  0  0  0  0  0  0  0  # atno 2461 bound_to 2456
   -4.9196   -5.4624    9.3579 H   0  0  0  0  0  0  0  0  0  0  0  0  # atno 2472 bound_to 2467
    2.0594   -8.2952    6.0898 H   0  0  0  0  0  0  0  0  0  0  0  0  # atno 2515 bound_to 2510
   -3.3388  -16.5438   13.7664 H   0  0  0  0  0  0  0  0  0  0  0  0  # atno 3721 bound_to 3712
   -5.1488  -21.9140   11.2934 H   0  0  0  0  0  0  0  0  0  0  0  0  # atno 3767 bound_to 3762
    2.8045  -20.9337    9.2976 H   0  0  0  0  0  0  0  0  0  0  0  0  # atno 3841 bound_to 3832
    3.7264   -8.7043    3.8298 LP  0  0  0  0  0  0  0  0  0  0  0  0  # atno 4297 bound_to 1298
    4.9121   -9.1898    4.8422 LP  0  0  0  0  0  0  0  0  0  0  0  0  # atno 4298 bound_to 1298
    0.9855   -9.2876    8.3093 LP  0  0  0  0  0  0  0  0  0  0  0  0  # atno 4299 bound_to 2456
    2.1360   -8.2920    7.7163 LP  0  0  0  0  0  0  0  0  0  0  0  0  # atno 4300 bound_to 2456
    2.4853   -7.5518    4.6999 LP  0  0  0  0  0  0  0  0  0  0  0  0  # atno 4301 bound_to 2510
    2.7522   -9.1521    4.8851 LP  0  0  0  0  0  0  0  0  0  0  0  0  # atno 4302 bound_to 2510
   -2.8302  -17.9491   13.1797 LP  0  0  0  0  0  0  0  0  0  0  0  0  # atno 4306 bound_to 3712
   -2.8428  -17.6771   14.7898 LP  0  0  0  0  0  0  0  0  0  0  0  0  # atno 4307 bound_to 3712
    1.3918  -20.1801    9.1858 LP  0  0  0  0  0  0  0  0  0  0  0  0  # atno 4314 bound_to 3832
    2.5980  -19.8436    8.1377 LP  0  0  0  0  0  0  0  0  0  0  0  0  # atno 4315 bound_to 3832
   -3.9085  -22.9733   11.2126 LP  0  0  0  0  0  0  0  0  0  0  0  0  # atno 4318 bound_to 3762
   -5.0703  -22.9875   10.0652 LP  0  0  0  0  0  0  0  0  0  0  0  0  # atno 4319 bound_to 3762
   -5.1531   -4.9365    7.8297 LP  0  0  0  0  0  0  0  0  0  0  0  0  # atno 4320 bound_to 2467
   -3.6443   -4.9947    8.4517 LP  0  0  0  0  0  0  0  0  0  0  0  0  # atno 4321 bound_to 2467

> <Gold.Score>
     Score     S(PLP)   S(hbond)     S(cho)   S(metal)  DE(clash)   DE(tors)     intcor
     41.71     -42.12       0.00       0.00       0.00       0.00       0.20       0.00

> <Gold.PLP.Fitness>
41.7141

> <Gold.PLP.PLP>
-42.1196

> <Gold.PLP.part.hbond>
0.0000

> <Gold.PLP.part.metal>
0.0000

> <Gold.PLP.part.buried>
-4.0170

> <Gold.PLP.part.nonpolar>
-39.1770

> <Gold.PLP.part.repulsive>
0.0695

> <Gold.PLP.ligand.clash>
0.0000

> <Gold.PLP.ligand.torsion>
0.2028

> <Gold.PLP.Chemscore.Hbond>
0.0000

> <Gold.PLP.Chemscore.CHOScore>
0.0000

> <Gold.PLP.Chemscore.Metal>
0.0000

> <Gold.PLP.Chemscore.Internal.Correction>
0.0000

