#       Name:                EN300-269527_i002
#       Creating user name   fsindt
#       Creation time:       Wed Mar  1 03:27:00 2023


#       File generated by GOLD software.
#

@<TRIPOS>MOLECULE
EN300-269527_i002|amine_7|mol2|10216|dock1
    32    33     1
SMALL
USER_CHARGES


@<TRIPOS>ATOM
      1 C1           0.8284 -14.2182   6.7637 C.3            1 <1>                0.0000
      2 C2           1.3931 -12.8016   6.9086 C.3            1 <1>                0.0000
      3 C3           0.5427 -12.0258   7.9191 C.3            1 <1>                0.0000
      4 C4           0.5264 -12.7836   9.2492 C.3            1 <1>                0.0000
      5 O5           0.0193 -14.1028   9.0380 O.3            1 <1>                0.0000
      6 C6           0.8010 -14.8913   8.1383 C.3            1 <1>                0.0000
      7 C7          -0.3699 -12.0460  10.2459 C.3            1 <1>                0.0000
      8 C8           0.1408 -10.6141  10.4304 C.3            1 <1>                0.0000
      9 C9          -0.8073  -9.8613  11.3682 C.3            1 <1>                0.0000
     10 C10         -2.2243  -9.9018  10.7921 C.3            1 <1>                0.0000
     11 N11         -2.6649 -11.2961  10.6646 N.4            1 <1>                1.0000
     12 C12         -1.8032 -12.0055   9.7114 C.3            1 <1>                0.0000
     13 H13         -0.1839 -14.1674   6.3627 H              1 <1>                0.0000
     14 H14          1.4602 -14.7948   6.0882 H              1 <1>                0.0000
     15 H15          2.4227 -12.8541   7.2626 H              1 <1>                0.0000
     16 H16          1.3633 -12.2966   5.9431 H              1 <1>                0.0000
     17 H17          0.9703 -11.0345   8.0699 H              1 <1>                0.0000
     18 H18         -0.4754 -11.9308   7.5415 H              1 <1>                0.0000
     19 H19          1.5398 -12.8430   9.6462 H              1 <1>                0.0000
     20 H20          0.3604 -15.8842   8.0482 H              1 <1>                0.0000
     21 H21          1.8180 -14.9783   8.5209 H              1 <1>                0.0000
     22 H22         -0.3526 -12.5649  11.2043 H              1 <1>                0.0000
     23 H23          1.1405 -10.6368  10.8641 H              1 <1>                0.0000
     24 H24          0.1729 -10.1111   9.4640 H              1 <1>                0.0000
     25 H25         -0.7999 -10.3347  12.3500 H              1 <1>                0.0000
     26 H26         -0.4814  -8.8253  11.4605 H              1 <1>                0.0000
     27 H27         -2.9019  -9.3666  11.4573 H              1 <1>                0.0000
     28 H28         -2.2306  -9.4280   9.8105 H              1 <1>                0.0000
     29 H29         -1.8184 -11.4869   8.7528 H              1 <1>                0.0000
     30 H30         -2.1698 -13.0234   9.5786 H              1 <1>                0.0000
     31 H31         -2.6120 -11.7482  11.5651 H              1 <1>                0.0000
     32 H32         -3.6183 -11.3177  10.3351 H              1 <1>                0.0000
@<TRIPOS>BOND
    1    1    2 1     
    2    1    6 1     
    3    1   13 1     
    4    1   14 1     
    5    2    3 1     
    6    2   15 1     
    7    2   16 1     
    8    3    4 1     
    9    3   17 1     
   10    3   18 1     
   11    4    5 1     
   12    4    7 1     
   13    4   19 1     
   14    5    6 1     
   15    6   20 1     
   16    6   21 1     
   17    7    8 1     
   18    7   12 1     
   19    7   22 1     
   20    8    9 1     
   21    8   23 1     
   22    8   24 1     
   23    9   10 1     
   24    9   25 1     
   25    9   26 1     
   26   10   11 1     
   27   10   27 1     
   28   10   28 1     
   29   11   12 1     
   30   11   31 1     
   31   11   32 1     
   32   12   29 1     
   33   12   30 1     
@<TRIPOS>SUBSTRUCTURE
      1 ****           1
@<TRIPOS>SET
DONOR_HYDROGENS      STATIC     ATOMS    <user>   **** ""
2 31 32
ATOM$RED        STATIC     ATOMS    COLORGROUP SYSTEM
2 31 32
@<TRIPOS>COMMENT
> <Gold.Version>
2022.2.0

> <Gold.Id.Protein>
3pbl|protein|mol2

> <Gold.Protein.RotatedTorsions>
[ 1303 1298 1297 1294 ] final  -39.40 input  179.99 | X-H torsion
[ 2461 2456 2455 2452 ] final  -72.54 input   30.03 | X-H torsion
[ 2515 2510 2509 2506 ] final  108.91 input  -89.99 | X-H torsion
[ 3721 3712 3711 3710 ] final -113.01 input -179.91 | X-H torsion
[ 3841 3832 3831 3830 ] final  148.74 input -179.91 | X-H torsion
[ 3767 3762 3761 3758 ] final  -77.38 input  -89.99 | X-H torsion
[ 2472 2467 2466 2463 ] final -136.42 input  -89.97 | X-H torsion

> <Gold.Protein.ActiveResidues>
 VAL82   VAL86   LEU89   PHE106  VAL107  ASP110  VAL111  MET112  CYS114  THR115 
 CYS181  SER182  ILE183  PHE188  VAL189  ILE190  SER192  SER193  SER196  TRP342 
 PHE345  PHE346  HIS349  VAL350  TYR365  THR369  GLY372  TYR373 

> <Gold.Protein.RotatedAtoms>
    3.3664   -9.2851    3.8057 H   0  0  0  0  0  0  0  0  0  0  0  0  # atno 1303 bound_to 1298
    0.3332   -8.7093    7.5040 H   0  0  0  0  0  0  0  0  0  0  0  0  # atno 2461 bound_to 2456
   -4.7686   -5.4633    9.4066 H   0  0  0  0  0  0  0  0  0  0  0  0  # atno 2472 bound_to 2467
    2.0295   -7.9944    6.0069 H   0  0  0  0  0  0  0  0  0  0  0  0  # atno 2515 bound_to 2510
   -3.1785  -16.7119   14.4862 H   0  0  0  0  0  0  0  0  0  0  0  0  # atno 3721 bound_to 3712
   -5.3466  -21.9571   11.0486 H   0  0  0  0  0  0  0  0  0  0  0  0  # atno 3767 bound_to 3762
    3.1261  -20.4207    8.6391 H   0  0  0  0  0  0  0  0  0  0  0  0  # atno 3841 bound_to 3832
    4.7049   -8.6440    4.4864 LP  0  0  0  0  0  0  0  0  0  0  0  0  # atno 4297 bound_to 1298
    4.2912  -10.1923    4.7997 LP  0  0  0  0  0  0  0  0  0  0  0  0  # atno 4298 bound_to 1298
    1.6395   -9.1362    8.3864 LP  0  0  0  0  0  0  0  0  0  0  0  0  # atno 4299 bound_to 2456
    1.7648   -7.9627    7.2578 LP  0  0  0  0  0  0  0  0  0  0  0  0  # atno 4300 bound_to 2456
    2.6136   -7.7573    4.5008 LP  0  0  0  0  0  0  0  0  0  0  0  0  # atno 4301 bound_to 2510
    2.6538   -9.2476    5.1671 LP  0  0  0  0  0  0  0  0  0  0  0  0  # atno 4302 bound_to 2510
   -3.2468  -17.2535   12.9762 LP  0  0  0  0  0  0  0  0  0  0  0  0  # atno 4306 bound_to 3712
   -2.6113  -18.1786   14.1623 LP  0  0  0  0  0  0  0  0  0  0  0  0  # atno 4307 bound_to 3712
    1.9095  -20.9417    9.5472 LP  0  0  0  0  0  0  0  0  0  0  0  0  # atno 4314 bound_to 3832
    1.7088  -19.6745    8.5369 LP  0  0  0  0  0  0  0  0  0  0  0  0  # atno 4315 bound_to 3832
   -3.9690  -22.7478   11.4280 LP  0  0  0  0  0  0  0  0  0  0  0  0  # atno 4318 bound_to 3762
   -4.8120  -23.1699   10.0946 LP  0  0  0  0  0  0  0  0  0  0  0  0  # atno 4319 bound_to 3762
   -5.2683   -4.9845    7.9276 LP  0  0  0  0  0  0  0  0  0  0  0  0  # atno 4320 bound_to 2467
   -3.6800   -4.9458    8.3051 LP  0  0  0  0  0  0  0  0  0  0  0  0  # atno 4321 bound_to 2467

> <Gold.Score>
     Score     S(PLP)   S(hbond)     S(cho)   S(metal)  DE(clash)   DE(tors)     intcor
     42.51     -42.52       0.00       0.00       0.00       0.00       0.00       0.00

> <Gold.PLP.Fitness>
42.5095

> <Gold.PLP.PLP>
-42.5178

> <Gold.PLP.part.hbond>
0.0000

> <Gold.PLP.part.metal>
0.0000

> <Gold.PLP.part.buried>
-4.5363

> <Gold.PLP.part.nonpolar>
-39.2111

> <Gold.PLP.part.repulsive>
0.0836

> <Gold.PLP.ligand.clash>
0.0000

> <Gold.PLP.ligand.torsion>
0.0042

> <Gold.PLP.Chemscore.Hbond>
0.0000

> <Gold.PLP.Chemscore.CHOScore>
0.0000

> <Gold.PLP.Chemscore.Metal>
0.0000

> <Gold.PLP.Chemscore.Internal.Correction>
0.0000

