#       Name:                EN300-269527_i002
#       Creating user name   fsindt
#       Creation time:       Wed Mar  1 03:27:05 2023


#       File generated by GOLD software.
#

@<TRIPOS>MOLECULE
EN300-269527_i002|amine_7|mol2|10216|dock18
    32    33     1
SMALL
USER_CHARGES


@<TRIPOS>ATOM
      1 C1          -2.3453 -10.2747  11.0832 C.3            1 <1>                0.0000
      2 C2          -1.3107 -11.0998  11.8548 C.3            1 <1>                0.0000
      3 C3          -1.0880 -12.4289  11.1268 C.3            1 <1>                0.0000
      4 C4          -0.6494 -12.1463   9.6875 C.3            1 <1>                0.0000
      5 O5          -1.6412 -11.3497   9.0365 O.3            1 <1>                0.0000
      6 C6          -1.8582 -10.0754   9.6456 C.3            1 <1>                0.0000
      7 C7          -0.4828 -13.4685   8.9359 C.3            1 <1>                0.0000
      8 C8          -0.1063 -13.1846   7.4789 C.3            1 <1>                0.0000
      9 C9           0.1344 -14.5129   6.7559 C.3            1 <1>                0.0000
     10 C10          1.2209 -15.2989   7.4931 C.3            1 <1>                0.0000
     11 N11          0.7900 -15.5614   8.8715 N.4            1 <1>                1.0000
     12 C12          0.6265 -14.2932   9.5922 C.3            1 <1>                0.0000
     13 H13         -3.2990 -10.8024  11.0747 H              1 <1>                0.0000
     14 H14         -2.4691  -9.3044  11.5637 H              1 <1>                0.0000
     15 H15         -0.3708 -10.5502  11.9060 H              1 <1>                0.0000
     16 H16         -1.6770 -11.2933  12.8630 H              1 <1>                0.0000
     17 H17         -0.3126 -12.9991  11.6385 H              1 <1>                0.0000
     18 H18         -2.0164 -13.0001  11.1192 H              1 <1>                0.0000
     19 H19          0.2997 -11.6104   9.6953 H              1 <1>                0.0000
     20 H20         -2.6102  -9.5253   9.0799 H              1 <1>                0.0000
     21 H21         -0.9249  -9.5123   9.6528 H              1 <1>                0.0000
     22 H22         -1.4191 -14.0258   8.9679 H              1 <1>                0.0000
     23 H23         -0.9186 -12.6460   6.9908 H              1 <1>                0.0000
     24 H24          0.8020 -12.5829   7.4478 H              1 <1>                0.0000
     25 H25         -0.7885 -15.0927   6.7428 H              1 <1>                0.0000
     26 H26          0.4570 -14.3176   5.7333 H              1 <1>                0.0000
     27 H27          1.3949 -16.2453   6.9809 H              1 <1>                0.0000
     28 H28          2.1435 -14.7185   7.5055 H              1 <1>                0.0000
     29 H29          1.5617 -13.7342   9.5599 H              1 <1>                0.0000
     30 H30          0.3617 -14.4969  10.6298 H              1 <1>                0.0000
     31 H31         -0.0892 -16.0561   8.8595 H              1 <1>                0.0000
     32 H32          1.4845 -16.1251   9.3383 H              1 <1>                0.0000
@<TRIPOS>BOND
    1    1    2 1     
    2    1    6 1     
    3    1   13 1     
    4    1   14 1     
    5    2    3 1     
    6    2   15 1     
    7    2   16 1     
    8    3    4 1     
    9    3   17 1     
   10    3   18 1     
   11    4    5 1     
   12    4    7 1     
   13    4   19 1     
   14    5    6 1     
   15    6   20 1     
   16    6   21 1     
   17    7    8 1     
   18    7   12 1     
   19    7   22 1     
   20    8    9 1     
   21    8   23 1     
   22    8   24 1     
   23    9   10 1     
   24    9   25 1     
   25    9   26 1     
   26   10   11 1     
   27   10   27 1     
   28   10   28 1     
   29   11   12 1     
   30   11   31 1     
   31   11   32 1     
   32   12   29 1     
   33   12   30 1     
@<TRIPOS>SUBSTRUCTURE
      1 ****           1
@<TRIPOS>SET
DONOR_HYDROGENS      STATIC     ATOMS    <user>   **** ""
2 31 32
ATOM$RED        STATIC     ATOMS    COLORGROUP SYSTEM
2 31 32
@<TRIPOS>COMMENT
> <Gold.Version>
2022.2.0

> <Gold.Id.Protein>
3pbl|protein|mol2

> <Gold.Protein.RotatedTorsions>
[ 1303 1298 1297 1294 ] final  -87.21 input  179.99 | X-H torsion
[ 2461 2456 2455 2452 ] final   97.91 input   30.03 | X-H torsion
[ 2515 2510 2509 2506 ] final   19.95 input  -89.99 | X-H torsion
[ 3721 3712 3711 3710 ] final   84.37 input -179.91 | X-H torsion
[ 3841 3832 3831 3830 ] final  134.88 input -179.91 | X-H torsion
[ 3767 3762 3761 3758 ] final  138.45 input  -89.99 | X-H torsion
[ 2472 2467 2466 2463 ] final  125.48 input  -89.97 | X-H torsion

> <Gold.Protein.ActiveResidues>
 VAL82   VAL86   LEU89   PHE106  VAL107  ASP110  VAL111  MET112  CYS114  THR115 
 CYS181  SER182  ILE183  PHE188  VAL189  ILE190  SER192  SER193  SER196  TRP342 
 PHE345  PHE346  HIS349  VAL350  TYR365  THR369  GLY372  TYR373 

> <Gold.Protein.RotatedAtoms>
    3.7910   -8.6520    3.8551 H   0  0  0  0  0  0  0  0  0  0  0  0  # atno 1303 bound_to 1298
    2.1580   -8.3851    7.8171 H   0  0  0  0  0  0  0  0  0  0  0  0  # atno 2461 bound_to 2456
   -5.4524   -5.1070    8.2091 H   0  0  0  0  0  0  0  0  0  0  0  0  # atno 2472 bound_to 2467
    2.4018   -7.4669    4.8548 H   0  0  0  0  0  0  0  0  0  0  0  0  # atno 2515 bound_to 2510
   -2.7435  -17.6797   13.1420 H   0  0  0  0  0  0  0  0  0  0  0  0  # atno 3721 bound_to 3712
   -3.9069  -23.0232   11.1520 H   0  0  0  0  0  0  0  0  0  0  0  0  # atno 3767 bound_to 3762
    3.1289  -20.5772    8.7775 H   0  0  0  0  0  0  0  0  0  0  0  0  # atno 3841 bound_to 3832
    4.9086   -9.2717    4.8715 LP  0  0  0  0  0  0  0  0  0  0  0  0  # atno 4297 bound_to 1298
    3.6627  -10.1979    4.3652 LP  0  0  0  0  0  0  0  0  0  0  0  0  # atno 4298 bound_to 1298
    0.7207   -8.1482    7.0786 LP  0  0  0  0  0  0  0  0  0  0  0  0  # atno 4299 bound_to 2456
    0.8594   -9.2748    8.2525 LP  0  0  0  0  0  0  0  0  0  0  0  0  # atno 4300 bound_to 2456
    2.7961   -9.0461    4.7270 LP  0  0  0  0  0  0  0  0  0  0  0  0  # atno 4301 bound_to 2510
    2.0989   -8.4865    6.0936 LP  0  0  0  0  0  0  0  0  0  0  0  0  # atno 4302 bound_to 2510
   -2.7997  -17.7594   14.7446 LP  0  0  0  0  0  0  0  0  0  0  0  0  # atno 4306 bound_to 3712
   -3.5606  -16.5554   13.9458 LP  0  0  0  0  0  0  0  0  0  0  0  0  # atno 4307 bound_to 3712
    1.7290  -20.7985    9.5307 LP  0  0  0  0  0  0  0  0  0  0  0  0  # atno 4314 bound_to 3832
    1.8860  -19.6370    8.3936 LP  0  0  0  0  0  0  0  0  0  0  0  0  # atno 4315 bound_to 3832
   -5.1285  -22.9355   10.0718 LP  0  0  0  0  0  0  0  0  0  0  0  0  # atno 4318 bound_to 3762
   -5.0917  -21.9165   11.3473 LP  0  0  0  0  0  0  0  0  0  0  0  0  # atno 4319 bound_to 3762
   -3.8520   -4.8562    8.0039 LP  0  0  0  0  0  0  0  0  0  0  0  0  # atno 4320 bound_to 2467
   -4.4127   -5.4304    9.4260 LP  0  0  0  0  0  0  0  0  0  0  0  0  # atno 4321 bound_to 2467

> <Gold.Score>
     Score     S(PLP)   S(hbond)     S(cho)   S(metal)  DE(clash)   DE(tors)     intcor
     47.60     -41.61       2.00       0.00       0.00       0.00       0.01       0.00

> <Gold.PLP.Fitness>
47.5978

> <Gold.PLP.PLP>
-41.6126

> <Gold.PLP.part.hbond>
-1.0000

> <Gold.PLP.part.metal>
0.0000

> <Gold.PLP.part.buried>
-2.9943

> <Gold.PLP.part.nonpolar>
-38.2515

> <Gold.PLP.part.repulsive>
0.0071

> <Gold.PLP.ligand.clash>
0.0000

> <Gold.PLP.ligand.torsion>
0.0074

> <Gold.PLP.Chemscore.Hbond>
2.0000

> <Gold.PLP.Chemscore.CHOScore>
0.0000

> <Gold.PLP.Chemscore.Metal>
0.0000

> <Gold.Chemscore.Hbonds>
donor molecule, donor type, donor heavy atom, donor atom, acceptor molecule, acceptor atom, score
      L1  H    11    32       P1  1227  2.00

> <Gold.PLP.Chemscore.Internal.Correction>
0.0000

