#       Name:                EN300-269527_i002
#       Creating user name   fsindt
#       Creation time:       Wed Mar  1 03:27:01 2023


#       File generated by GOLD software.
#

@<TRIPOS>MOLECULE
EN300-269527_i002|amine_7|mol2|10216|dock2
    32    33     1
SMALL
USER_CHARGES


@<TRIPOS>ATOM
      1 C1          -2.0642 -10.2152  11.1062 C.3            1 <1>                0.0000
      2 C2          -1.3014 -11.2591  11.9277 C.3            1 <1>                0.0000
      3 C3          -1.1729 -12.5452  11.1057 C.3            1 <1>                0.0000
      4 C4          -0.4766 -12.2270   9.7800 C.3            1 <1>                0.0000
      5 O5          -1.2209 -11.2278   9.0804 O.3            1 <1>                0.0000
      6 C6          -1.3335  -9.9871   9.7805 C.3            1 <1>                0.0000
      7 C7          -0.3982 -13.4951   8.9276 C.3            1 <1>                0.0000
      8 C8          -0.0252 -13.1226   7.4898 C.3            1 <1>                0.0000
      9 C9           0.1272 -14.4033   6.6642 C.3            1 <1>                0.0000
     10 C10          1.1754 -15.3047   7.3202 C.3            1 <1>                0.0000
     11 N11          0.7483 -15.6468   8.6822 N.4            1 <1>                1.0000
     12 C12          0.6694 -14.4302   9.4996 C.3            1 <1>                0.0000
     13 H13         -3.0741 -10.5745  10.9084 H              1 <1>                0.0000
     14 H14         -2.1122  -9.2787  11.6616 H              1 <1>                0.0000
     15 H15         -0.3083 -10.8792  12.1679 H              1 <1>                0.0000
     16 H16         -1.8461 -11.4677  12.8485 H              1 <1>                0.0000
     17 H17         -0.5834 -13.2749  11.6609 H              1 <1>                0.0000
     18 H18         -2.1648 -12.9516  10.9078 H              1 <1>                0.0000
     19 H19          0.5301 -11.8587   9.9774 H              1 <1>                0.0000
     20 H20         -1.8949  -9.2768   9.1735 H              1 <1>                0.0000
     21 H21         -0.3380  -9.5894   9.9778 H              1 <1>                0.0000
     22 H22         -1.3651 -13.9984   8.9341 H              1 <1>                0.0000
     23 H23         -0.8109 -12.5023   7.0585 H              1 <1>                0.0000
     24 H24          0.9164 -12.5736   7.4881 H              1 <1>                0.0000
     25 H25         -0.8284 -14.9261   6.6236 H              1 <1>                0.0000
     26 H26          0.4469 -14.1491   5.6536 H              1 <1>                0.0000
     27 H27          1.2865 -16.2175   6.7348 H              1 <1>                0.0000
     28 H28          2.1305 -14.7811   7.3600 H              1 <1>                0.0000
     29 H29          1.6353 -13.9252   9.4930 H              1 <1>                0.0000
     30 H30          0.4070 -14.6973  10.5234 H              1 <1>                0.0000
     31 H31         -0.1586 -16.0876   8.6485 H              1 <1>                0.0000
     32 H32          1.4147 -16.2837   9.0925 H              1 <1>                0.0000
@<TRIPOS>BOND
    1    1    2 1     
    2    1    6 1     
    3    1   13 1     
    4    1   14 1     
    5    2    3 1     
    6    2   15 1     
    7    2   16 1     
    8    3    4 1     
    9    3   17 1     
   10    3   18 1     
   11    4    5 1     
   12    4    7 1     
   13    4   19 1     
   14    5    6 1     
   15    6   20 1     
   16    6   21 1     
   17    7    8 1     
   18    7   12 1     
   19    7   22 1     
   20    8    9 1     
   21    8   23 1     
   22    8   24 1     
   23    9   10 1     
   24    9   25 1     
   25    9   26 1     
   26   10   11 1     
   27   10   27 1     
   28   10   28 1     
   29   11   12 1     
   30   11   31 1     
   31   11   32 1     
   32   12   29 1     
   33   12   30 1     
@<TRIPOS>SUBSTRUCTURE
      1 ****           1
@<TRIPOS>SET
DONOR_HYDROGENS      STATIC     ATOMS    <user>   **** ""
2 31 32
ATOM$RED        STATIC     ATOMS    COLORGROUP SYSTEM
2 31 32
@<TRIPOS>COMMENT
> <Gold.Version>
2022.2.0

> <Gold.Id.Protein>
3pbl|protein|mol2

> <Gold.Protein.RotatedTorsions>
[ 1303 1298 1297 1294 ] final -132.98 input  179.99 | X-H torsion
[ 2461 2456 2455 2452 ] final   22.89 input   30.03 | X-H torsion
[ 2515 2510 2509 2506 ] final  130.58 input  -89.99 | X-H torsion
[ 3721 3712 3711 3710 ] final  178.38 input -179.91 | X-H torsion
[ 3841 3832 3831 3830 ] final  178.30 input -179.91 | X-H torsion
[ 3767 3762 3761 3758 ] final   -4.66 input  -89.99 | X-H torsion
[ 2472 2467 2466 2463 ] final  138.73 input  -89.97 | X-H torsion

> <Gold.Protein.ActiveResidues>
 VAL82   VAL86   LEU89   PHE106  VAL107  ASP110  VAL111  MET112  CYS114  THR115 
 CYS181  SER182  ILE183  PHE188  VAL189  ILE190  SER192  SER193  SER196  TRP342 
 PHE345  PHE346  HIS349  VAL350  TYR365  THR369  GLY372  TYR373 

> <Gold.Protein.RotatedAtoms>
    4.4060   -8.4872    4.2185 H   0  0  0  0  0  0  0  0  0  0  0  0  # atno 1303 bound_to 1298
    1.4042   -7.9179    7.0872 H   0  0  0  0  0  0  0  0  0  0  0  0  # atno 2461 bound_to 2456
   -5.5032   -5.1837    8.4063 H   0  0  0  0  0  0  0  0  0  0  0  0  # atno 2472 bound_to 2467
    2.0665   -8.3360    6.0937 H   0  0  0  0  0  0  0  0  0  0  0  0  # atno 2515 bound_to 2510
   -3.3182  -16.6172   13.5246 H   0  0  0  0  0  0  0  0  0  0  0  0  # atno 3721 bound_to 3712
   -5.3631  -22.6591   10.1785 H   0  0  0  0  0  0  0  0  0  0  0  0  # atno 3767 bound_to 3762
    2.9722  -20.0695    8.4200 H   0  0  0  0  0  0  0  0  0  0  0  0  # atno 3841 bound_to 3832
    4.6171   -9.9422    4.9291 LP  0  0  0  0  0  0  0  0  0  0  0  0  # atno 4297 bound_to 1298
    3.3389   -9.6923    3.9440 LP  0  0  0  0  0  0  0  0  0  0  0  0  # atno 4298 bound_to 1298
    0.3861   -8.9814    7.7942 LP  0  0  0  0  0  0  0  0  0  0  0  0  # atno 4299 bound_to 2456
    1.9475   -8.9086    8.2665 LP  0  0  0  0  0  0  0  0  0  0  0  0  # atno 4300 bound_to 2456
    2.4676   -7.5308    4.7311 LP  0  0  0  0  0  0  0  0  0  0  0  0  # atno 4301 bound_to 2510
    2.7628   -9.1324    4.8500 LP  0  0  0  0  0  0  0  0  0  0  0  0  # atno 4302 bound_to 2510
   -2.7237  -18.1024   13.3888 LP  0  0  0  0  0  0  0  0  0  0  0  0  # atno 4306 bound_to 3712
   -2.9730  -17.4390   14.8599 LP  0  0  0  0  0  0  0  0  0  0  0  0  # atno 4307 bound_to 3712
    2.3477  -21.1330    9.4471 LP  0  0  0  0  0  0  0  0  0  0  0  0  # atno 4314 bound_to 3832
    1.4483  -19.8890    8.8902 LP  0  0  0  0  0  0  0  0  0  0  0  0  # atno 4315 bound_to 3832
   -4.7844  -21.9933   11.5528 LP  0  0  0  0  0  0  0  0  0  0  0  0  # atno 4318 bound_to 3762
   -3.9802  -23.2226   10.8395 LP  0  0  0  0  0  0  0  0  0  0  0  0  # atno 4319 bound_to 3762
   -4.0088   -4.8206    7.8573 LP  0  0  0  0  0  0  0  0  0  0  0  0  # atno 4320 bound_to 2467
   -4.2051   -5.3893    9.3754 LP  0  0  0  0  0  0  0  0  0  0  0  0  # atno 4321 bound_to 2467

> <Gold.Score>
     Score     S(PLP)   S(hbond)     S(cho)   S(metal)  DE(clash)   DE(tors)     intcor
     47.26     -41.64       2.00       0.00       0.00       0.00       0.19       0.00

> <Gold.PLP.Fitness>
47.2617

> <Gold.PLP.PLP>
-41.6407

> <Gold.PLP.part.hbond>
-1.0000

> <Gold.PLP.part.metal>
0.0000

> <Gold.PLP.part.buried>
-3.7821

> <Gold.PLP.part.nonpolar>
-37.8888

> <Gold.PLP.part.repulsive>
0.0050

> <Gold.PLP.ligand.clash>
0.0000

> <Gold.PLP.ligand.torsion>
0.1895

> <Gold.PLP.Chemscore.Hbond>
2.0000

> <Gold.PLP.Chemscore.CHOScore>
0.0000

> <Gold.PLP.Chemscore.Metal>
0.0000

> <Gold.Chemscore.Hbonds>
donor molecule, donor type, donor heavy atom, donor atom, acceptor molecule, acceptor atom, score
      L1  H    11    32       P1  1227  2.00

> <Gold.PLP.Chemscore.Internal.Correction>
0.0000

