#       Name:                EN300-269527_i002
#       Creating user name   fsindt
#       Creation time:       Wed Mar  1 03:27:06 2023


#       File generated by GOLD software.
#

@<TRIPOS>MOLECULE
EN300-269527_i002|amine_7|mol2|10216|dock19
    32    33     1
SMALL
USER_CHARGES


@<TRIPOS>ATOM
      1 C1           1.3997 -13.7966   6.8965 C.3            1 <1>                0.0000
      2 C2          -0.0014 -14.4116   6.9696 C.3            1 <1>                0.0000
      3 C3          -0.7396 -13.8303   8.1792 C.3            1 <1>                0.0000
      4 C4          -0.7803 -12.3047   8.0577 C.3            1 <1>                0.0000
      5 O5           0.5532 -11.8000   7.9630 O.3            1 <1>                0.0000
      6 C6           1.2764 -12.2724   6.8246 C.3            1 <1>                0.0000
      7 C7          -1.4635 -11.7126   9.2920 C.3            1 <1>                0.0000
      8 C8          -0.6499 -12.0589  10.5423 C.3            1 <1>                0.0000
      9 C9          -1.2986 -11.3966  11.7612 C.3            1 <1>                0.0000
     10 C10         -1.3879  -9.8870  11.5272 C.3            1 <1>                0.0000
     11 N11         -2.1997  -9.6204  10.3337 N.4            1 <1>                1.0000
     12 C12         -1.5467 -10.1913   9.1496 C.3            1 <1>                0.0000
     13 H13          1.9663 -14.0747   7.7851 H              1 <1>                0.0000
     14 H14          1.9124 -14.1630   6.0072 H              1 <1>                0.0000
     15 H15         -0.5513 -14.1751   6.0586 H              1 <1>                0.0000
     16 H16          0.0803 -15.4931   7.0774 H              1 <1>                0.0000
     17 H17         -1.7569 -14.2207   8.2072 H              1 <1>                0.0000
     18 H18         -0.2162 -14.1090   9.0938 H              1 <1>                0.0000
     19 H19         -1.3388 -12.0260   7.1641 H              1 <1>                0.0000
     20 H20          2.2713 -11.8272   6.8154 H              1 <1>                0.0000
     21 H21          0.7448 -11.9932   5.9148 H              1 <1>                0.0000
     22 H22         -2.4680 -12.1256   9.3854 H              1 <1>                0.0000
     23 H23         -0.6354 -13.1401  10.6798 H              1 <1>                0.0000
     24 H24          0.3696 -11.6912  10.4272 H              1 <1>                0.0000
     25 H25         -2.2999 -11.8022  11.9061 H              1 <1>                0.0000
     26 H26         -0.6941 -11.5925  12.6468 H              1 <1>                0.0000
     27 H27         -1.8492  -9.4122  12.3932 H              1 <1>                0.0000
     28 H28         -0.3862  -9.4823  11.3826 H              1 <1>                0.0000
     29 H29         -0.5417  -9.7802   9.0557 H              1 <1>                0.0000
     30 H30         -2.1252  -9.9412   8.2602 H              1 <1>                0.0000
     31 H31         -3.1111 -10.0377  10.4480 H              1 <1>                0.0000
     32 H32         -2.3010  -8.6238  10.2129 H              1 <1>                0.0000
@<TRIPOS>BOND
    1    1    2 1     
    2    1    6 1     
    3    1   13 1     
    4    1   14 1     
    5    2    3 1     
    6    2   15 1     
    7    2   16 1     
    8    3    4 1     
    9    3   17 1     
   10    3   18 1     
   11    4    5 1     
   12    4    7 1     
   13    4   19 1     
   14    5    6 1     
   15    6   20 1     
   16    6   21 1     
   17    7    8 1     
   18    7   12 1     
   19    7   22 1     
   20    8    9 1     
   21    8   23 1     
   22    8   24 1     
   23    9   10 1     
   24    9   25 1     
   25    9   26 1     
   26   10   11 1     
   27   10   27 1     
   28   10   28 1     
   29   11   12 1     
   30   11   31 1     
   31   11   32 1     
   32   12   29 1     
   33   12   30 1     
@<TRIPOS>SUBSTRUCTURE
      1 ****           1
@<TRIPOS>SET
DONOR_HYDROGENS      STATIC     ATOMS    <user>   **** ""
2 31 32
ATOM$RED        STATIC     ATOMS    COLORGROUP SYSTEM
2 31 32
@<TRIPOS>COMMENT
> <Gold.Version>
2022.2.0

> <Gold.Id.Protein>
3pbl|protein|mol2

> <Gold.Protein.RotatedTorsions>
[ 1303 1298 1297 1294 ] final    5.22 input  179.99 | X-H torsion
[ 2461 2456 2455 2452 ] final  107.98 input   30.03 | X-H torsion
[ 2515 2510 2509 2506 ] final   96.90 input  -89.99 | X-H torsion
[ 3721 3712 3711 3710 ] final   11.55 input -179.91 | X-H torsion
[ 3841 3832 3831 3830 ] final  146.45 input -179.91 | X-H torsion
[ 3767 3762 3761 3758 ] final   17.33 input  -89.99 | X-H torsion
[ 2472 2467 2466 2463 ] final   38.44 input  -89.97 | X-H torsion

> <Gold.Protein.ActiveResidues>
 VAL82   VAL86   LEU89   PHE106  VAL107  ASP110  VAL111  MET112  CYS114  THR115 
 CYS181  SER182  ILE183  PHE188  VAL189  ILE190  SER192  SER193  SER196  TRP342 
 PHE345  PHE346  HIS349  VAL350  TYR365  THR369  GLY372  TYR373 

> <Gold.Protein.RotatedAtoms>
    3.4159   -9.9384    4.0936 H   0  0  0  0  0  0  0  0  0  0  0  0  # atno 1303 bound_to 1298
    2.1579   -8.5022    7.9340 H   0  0  0  0  0  0  0  0  0  0  0  0  # atno 2461 bound_to 2456
   -4.2945   -4.7993    7.7088 H   0  0  0  0  0  0  0  0  0  0  0  0  # atno 2472 bound_to 2467
    2.0335   -7.8228    5.9098 H   0  0  0  0  0  0  0  0  0  0  0  0  # atno 2515 bound_to 2510
   -2.4712  -18.0097   14.0771 H   0  0  0  0  0  0  0  0  0  0  0  0  # atno 3721 bound_to 3712
   -5.1416  -22.9224   10.0736 H   0  0  0  0  0  0  0  0  0  0  0  0  # atno 3767 bound_to 3762
    3.1297  -20.4475    8.6608 H   0  0  0  0  0  0  0  0  0  0  0  0  # atno 3841 bound_to 3832
    4.1617   -8.4864    4.0478 LP  0  0  0  0  0  0  0  0  0  0  0  0  # atno 4297 bound_to 1298
    4.7848   -9.6963    4.9503 LP  0  0  0  0  0  0  0  0  0  0  0  0  # atno 4298 bound_to 1298
    0.8597   -8.0654    7.0445 LP  0  0  0  0  0  0  0  0  0  0  0  0  # atno 4299 bound_to 2456
    0.7204   -9.2406    8.1697 LP  0  0  0  0  0  0  0  0  0  0  0  0  # atno 4300 bound_to 2456
    2.6847   -7.9205    4.4157 LP  0  0  0  0  0  0  0  0  0  0  0  0  # atno 4301 bound_to 2510
    2.5788   -9.2561    5.3494 LP  0  0  0  0  0  0  0  0  0  0  0  0  # atno 4302 bound_to 2510
   -3.3698  -16.7866   14.6011 LP  0  0  0  0  0  0  0  0  0  0  0  0  # atno 4306 bound_to 3712
   -3.3047  -17.1472   13.0097 LP  0  0  0  0  0  0  0  0  0  0  0  0  # atno 4307 bound_to 3712
    1.8780  -20.9200    9.5473 LP  0  0  0  0  0  0  0  0  0  0  0  0  # atno 4314 bound_to 3832
    1.7361  -19.6654    8.5118 LP  0  0  0  0  0  0  0  0  0  0  0  0  # atno 4315 bound_to 3832
   -5.0779  -21.9176   11.3594 LP  0  0  0  0  0  0  0  0  0  0  0  0  # atno 4318 bound_to 3762
   -3.9080  -23.0351   11.1378 LP  0  0  0  0  0  0  0  0  0  0  0  0  # atno 4319 bound_to 3762
   -3.9355   -5.3036    9.2198 LP  0  0  0  0  0  0  0  0  0  0  0  0  # atno 4320 bound_to 2467
   -5.4869   -5.2906    8.7104 LP  0  0  0  0  0  0  0  0  0  0  0  0  # atno 4321 bound_to 2467

> <Gold.Score>
     Score     S(PLP)   S(hbond)     S(cho)   S(metal)  DE(clash)   DE(tors)     intcor
     40.63     -38.30       0.78       0.00       0.00       0.00       0.00       0.00

> <Gold.PLP.Fitness>
40.6328

> <Gold.PLP.PLP>
-38.3012

> <Gold.PLP.part.hbond>
-0.8665

> <Gold.PLP.part.metal>
0.0000

> <Gold.PLP.part.buried>
-4.9427

> <Gold.PLP.part.nonpolar>
-32.4297

> <Gold.PLP.part.repulsive>
0.0619

> <Gold.PLP.ligand.clash>
0.0000

> <Gold.PLP.ligand.torsion>
0.0042

> <Gold.PLP.Chemscore.Hbond>
0.7800

> <Gold.PLP.Chemscore.CHOScore>
0.0000

> <Gold.PLP.Chemscore.Metal>
0.0000

> <Gold.Chemscore.Hbonds>
donor molecule, donor type, donor heavy atom, donor atom, acceptor molecule, acceptor atom, score
      L1  H    11    32       P1  2398  0.78

> <Gold.PLP.Chemscore.Internal.Correction>
0.0000

