#       Name:                EN300-269527_i002
#       Creating user name   fsindt
#       Creation time:       Wed Mar  1 03:27:02 2023


#       File generated by GOLD software.
#

@<TRIPOS>MOLECULE
EN300-269527_i002|amine_7|mol2|10216|dock5
    32    33     1
SMALL
USER_CHARGES


@<TRIPOS>ATOM
      1 C1           1.1120 -11.9105   7.1357 C.3            1 <1>                0.0000
      2 C2           0.5257 -13.1895   6.5300 C.3            1 <1>                0.0000
      3 C3           0.7591 -14.3533   7.4980 C.3            1 <1>                0.0000
      4 C4           0.1339 -14.0128   8.8534 C.3            1 <1>                0.0000
      5 O5           0.7009 -12.7971   9.3460 O.3            1 <1>                0.0000
      6 C6           0.4733 -11.6644   8.5051 C.3            1 <1>                0.0000
      7 C7           0.4148 -15.1448   9.8437 C.3            1 <1>                0.0000
      8 C8          -0.0400 -14.7238  11.2440 C.3            1 <1>                0.0000
      9 C9           0.1730 -15.8913  12.2118 C.3            1 <1>                0.0000
     10 C10         -0.5868 -17.1166  11.6992 C.3            1 <1>                0.0000
     11 N11         -0.0882 -17.4848  10.3687 N.4            1 <1>                1.0000
     12 C12         -0.3540 -16.3978   9.4189 C.3            1 <1>                0.0000
     13 H13          2.1899 -12.0233   7.2516 H              1 <1>                0.0000
     14 H14          0.9017 -11.0666   6.4787 H              1 <1>                0.0000
     15 H15         -0.5443 -13.0589   6.3680 H              1 <1>                0.0000
     16 H16          1.0165 -13.4013   5.5801 H              1 <1>                0.0000
     17 H17          0.2964 -15.2565   7.1001 H              1 <1>                0.0000
     18 H18          1.8299 -14.5155   7.6212 H              1 <1>                0.0000
     19 H19         -0.9428 -13.8906   8.7366 H              1 <1>                0.0000
     20 H20          0.9177 -10.7789   8.9596 H              1 <1>                0.0000
     21 H21         -0.5991 -11.5114   8.3837 H              1 <1>                0.0000
     22 H22          1.4834 -15.3597   9.8573 H              1 <1>                0.0000
     23 H23          0.5446 -13.8652  11.5744 H              1 <1>                0.0000
     24 H24         -1.0970 -14.4588  11.2197 H              1 <1>                0.0000
     25 H25          1.2364 -16.1225  12.2747 H              1 <1>                0.0000
     26 H26         -0.1999 -15.6185  13.1990 H              1 <1>                0.0000
     27 H27         -0.4374 -17.9498  12.3861 H              1 <1>                0.0000
     28 H28         -1.6500 -16.8844  11.6369 H              1 <1>                0.0000
     29 H29         -1.4221 -16.1809   9.4052 H              1 <1>                0.0000
     30 H30         -0.0327 -16.7002   8.4221 H              1 <1>                0.0000
     31 H31          0.9056 -17.6520  10.4175 H              1 <1>                0.0000
     32 H32         -0.5535 -18.3240  10.0567 H              1 <1>                0.0000
@<TRIPOS>BOND
    1    1    2 1     
    2    1    6 1     
    3    1   13 1     
    4    1   14 1     
    5    2    3 1     
    6    2   15 1     
    7    2   16 1     
    8    3    4 1     
    9    3   17 1     
   10    3   18 1     
   11    4    5 1     
   12    4    7 1     
   13    4   19 1     
   14    5    6 1     
   15    6   20 1     
   16    6   21 1     
   17    7    8 1     
   18    7   12 1     
   19    7   22 1     
   20    8    9 1     
   21    8   23 1     
   22    8   24 1     
   23    9   10 1     
   24    9   25 1     
   25    9   26 1     
   26   10   11 1     
   27   10   27 1     
   28   10   28 1     
   29   11   12 1     
   30   11   31 1     
   31   11   32 1     
   32   12   29 1     
   33   12   30 1     
@<TRIPOS>SUBSTRUCTURE
      1 ****           1
@<TRIPOS>SET
DONOR_HYDROGENS      STATIC     ATOMS    <user>   **** ""
2 31 32
ATOM$RED        STATIC     ATOMS    COLORGROUP SYSTEM
2 31 32
@<TRIPOS>COMMENT
> <Gold.Version>
2022.2.0

> <Gold.Id.Protein>
3pbl|protein|mol2

> <Gold.Protein.RotatedTorsions>
[ 1303 1298 1297 1294 ] final -108.98 input  179.99 | X-H torsion
[ 2461 2456 2455 2452 ] final -153.63 input   30.03 | X-H torsion
[ 2515 2510 2509 2506 ] final  174.88 input  -89.99 | X-H torsion
[ 3721 3712 3711 3710 ] final  -41.74 input -179.91 | X-H torsion
[ 3841 3832 3831 3830 ] final   30.13 input -179.91 | X-H torsion
[ 3767 3762 3761 3758 ] final -106.43 input  -89.99 | X-H torsion
[ 2472 2467 2466 2463 ] final -111.16 input  -89.97 | X-H torsion

> <Gold.Protein.ActiveResidues>
 VAL82   VAL86   LEU89   PHE106  VAL107  ASP110  VAL111  MET112  CYS114  THR115 
 CYS181  SER182  ILE183  PHE188  VAL189  ILE190  SER192  SER193  SER196  TRP342 
 PHE345  PHE346  HIS349  VAL350  TYR365  THR369  GLY372  TYR373 

> <Gold.Protein.RotatedAtoms>
    4.0812   -8.5052    3.9998 H   0  0  0  0  0  0  0  0  0  0  0  0  # atno 1303 bound_to 1298
    1.0332   -9.2888    8.3272 H   0  0  0  0  0  0  0  0  0  0  0  0  # atno 2461 bound_to 2456
   -4.3586   -5.4221    9.4173 H   0  0  0  0  0  0  0  0  0  0  0  0  # atno 2472 bound_to 2467
    2.2895   -8.9807    5.8947 H   0  0  0  0  0  0  0  0  0  0  0  0  # atno 2515 bound_to 2510
   -2.6731  -17.5637   14.6803 H   0  0  0  0  0  0  0  0  0  0  0  0  # atno 3721 bound_to 3712
   -5.0301  -21.9227   11.3983 H   0  0  0  0  0  0  0  0  0  0  0  0  # atno 3767 bound_to 3762
    2.0678  -20.7852    9.6207 H   0  0  0  0  0  0  0  0  0  0  0  0  # atno 3841 bound_to 3832
    4.8249   -9.6100    4.9446 LP  0  0  0  0  0  0  0  0  0  0  0  0  # atno 4297 bound_to 1298
    3.4561  -10.0065    4.1473 LP  0  0  0  0  0  0  0  0  0  0  0  0  # atno 4298 bound_to 1298
    2.1232   -8.2594    7.6793 LP  0  0  0  0  0  0  0  0  0  0  0  0  # atno 4299 bound_to 2456
    0.5812   -8.2602    7.1418 LP  0  0  0  0  0  0  0  0  0  0  0  0  # atno 4300 bound_to 2456
    2.1767   -7.4377    5.3731 LP  0  0  0  0  0  0  0  0  0  0  0  0  # atno 4301 bound_to 2510
    2.8306   -8.5804    4.4071 LP  0  0  0  0  0  0  0  0  0  0  0  0  # atno 4302 bound_to 2510
   -3.5675  -16.5668   13.7949 LP  0  0  0  0  0  0  0  0  0  0  0  0  # atno 4306 bound_to 3712
   -2.8740  -17.8819   13.1195 LP  0  0  0  0  0  0  0  0  0  0  0  0  # atno 4307 bound_to 3712
    1.7274  -19.6681    8.5196 LP  0  0  0  0  0  0  0  0  0  0  0  0  # atno 4314 bound_to 3832
    3.1133  -20.5272    8.4306 LP  0  0  0  0  0  0  0  0  0  0  0  0  # atno 4315 bound_to 3832
   -3.9122  -23.0722   11.0887 LP  0  0  0  0  0  0  0  0  0  0  0  0  # atno 4318 bound_to 3762
   -5.1852  -22.8799   10.0843 LP  0  0  0  0  0  0  0  0  0  0  0  0  # atno 4319 bound_to 3762
   -5.4699   -5.1258    8.2582 LP  0  0  0  0  0  0  0  0  0  0  0  0  # atno 4320 bound_to 2467
   -3.8884   -4.8457    7.9637 LP  0  0  0  0  0  0  0  0  0  0  0  0  # atno 4321 bound_to 2467

> <Gold.Score>
     Score     S(PLP)   S(hbond)     S(cho)   S(metal)  DE(clash)   DE(tors)     intcor
     39.71     -33.88       1.98       0.00       0.00       0.00       0.06       0.00

> <Gold.PLP.Fitness>
39.7088

> <Gold.PLP.PLP>
-33.8796

> <Gold.PLP.part.hbond>
-1.0000

> <Gold.PLP.part.metal>
0.0000

> <Gold.PLP.part.buried>
-2.7536

> <Gold.PLP.part.nonpolar>
-30.3693

> <Gold.PLP.part.repulsive>
0.0000

> <Gold.PLP.ligand.clash>
0.0000

> <Gold.PLP.ligand.torsion>
0.0614

> <Gold.PLP.Chemscore.Hbond>
1.9840

> <Gold.PLP.Chemscore.CHOScore>
0.0000

> <Gold.PLP.Chemscore.Metal>
0.0000

> <Gold.Chemscore.Hbonds>
donor molecule, donor type, donor heavy atom, donor atom, acceptor molecule, acceptor atom, score
      L1  H    11    31       P1  1227  1.98

> <Gold.PLP.Chemscore.Internal.Correction>
0.0000

