#       Name:                EN300-269527_i002
#       Creating user name   fsindt
#       Creation time:       Wed Mar  1 03:27:04 2023


#       File generated by GOLD software.
#

@<TRIPOS>MOLECULE
EN300-269527_i002|amine_7|mol2|10216|dock14
    32    33     1
SMALL
USER_CHARGES


@<TRIPOS>ATOM
      1 C1          -2.7382  -9.8945  10.0639 C.3            1 <1>                0.0000
      2 C2          -3.0094 -11.3965  10.1947 C.3            1 <1>                0.0000
      3 C3          -1.9716 -12.1651   9.3711 C.3            1 <1>                0.0000
      4 C4          -0.5681 -11.7843   9.8495 C.3            1 <1>                0.0000
      5 O5          -0.3926 -10.3712   9.7299 O.3            1 <1>                0.0000
      6 C6          -1.3051  -9.6015  10.5155 C.3            1 <1>                0.0000
      7 C7           0.4757 -12.5024   8.9917 C.3            1 <1>                0.0000
      8 C8           0.1692 -14.0026   8.9625 C.3            1 <1>                0.0000
      9 C9           1.1720 -14.7006   8.0393 C.3            1 <1>                0.0000
     10 C10          1.1025 -14.0672   6.6480 C.3            1 <1>                0.0000
     11 N11          1.4309 -12.6396   6.7394 N.4            1 <1>                1.0000
     12 C12          0.4320 -11.9506   7.5652 C.3            1 <1>                0.0000
     13 H13         -2.8617  -9.5913   9.0243 H              1 <1>                0.0000
     14 H14         -3.4379  -9.3421  10.6909 H              1 <1>                0.0000
     15 H15         -2.9346 -11.6906  11.2416 H              1 <1>                0.0000
     16 H16         -4.0090 -11.6203   9.8222 H              1 <1>                0.0000
     17 H17         -2.1231 -13.2365   9.5027 H              1 <1>                0.0000
     18 H18         -2.0796 -11.9077   8.3174 H              1 <1>                0.0000
     19 H19         -0.4470 -12.0787  10.8919 H              1 <1>                0.0000
     20 H20         -1.0924  -8.5405  10.3843 H              1 <1>                0.0000
     21 H21         -1.1936  -9.8673  11.5667 H              1 <1>                0.0000
     22 H22          1.4674 -12.3417   9.4147 H              1 <1>                0.0000
     23 H23          0.2547 -14.4117   9.9692 H              1 <1>                0.0000
     24 H24         -0.8421 -14.1607   8.5881 H              1 <1>                0.0000
     25 H25          2.1785 -14.5855   8.4416 H              1 <1>                0.0000
     26 H26          0.9261 -15.7602   7.9695 H              1 <1>                0.0000
     27 H27          1.8151 -14.5620   5.9880 H              1 <1>                0.0000
     28 H28          0.0958 -14.1831   6.2464 H              1 <1>                0.0000
     29 H29         -0.5603 -12.1115   7.1441 H              1 <1>                0.0000
     30 H30          0.6496 -10.8826   7.5824 H              1 <1>                0.0000
     31 H31          2.3432 -12.5314   7.1566 H              1 <1>                0.0000
     32 H32          1.4365 -12.2369   5.8142 H              1 <1>                0.0000
@<TRIPOS>BOND
    1    1    2 1     
    2    1    6 1     
    3    1   13 1     
    4    1   14 1     
    5    2    3 1     
    6    2   15 1     
    7    2   16 1     
    8    3    4 1     
    9    3   17 1     
   10    3   18 1     
   11    4    5 1     
   12    4    7 1     
   13    4   19 1     
   14    5    6 1     
   15    6   20 1     
   16    6   21 1     
   17    7    8 1     
   18    7   12 1     
   19    7   22 1     
   20    8    9 1     
   21    8   23 1     
   22    8   24 1     
   23    9   10 1     
   24    9   25 1     
   25    9   26 1     
   26   10   11 1     
   27   10   27 1     
   28   10   28 1     
   29   11   12 1     
   30   11   31 1     
   31   11   32 1     
   32   12   29 1     
   33   12   30 1     
@<TRIPOS>SUBSTRUCTURE
      1 ****           1
@<TRIPOS>SET
DONOR_HYDROGENS      STATIC     ATOMS    <user>   **** ""
2 31 32
ATOM$RED        STATIC     ATOMS    COLORGROUP SYSTEM
2 31 32
@<TRIPOS>COMMENT
> <Gold.Version>
2022.2.0

> <Gold.Id.Protein>
3pbl|protein|mol2

> <Gold.Protein.RotatedTorsions>
[ 1303 1298 1297 1294 ] final  154.57 input  179.99 | X-H torsion
[ 2461 2456 2455 2452 ] final -147.67 input   30.03 | X-H torsion
[ 2515 2510 2509 2506 ] final  -42.71 input  -89.99 | X-H torsion
[ 3721 3712 3711 3710 ] final -156.76 input -179.91 | X-H torsion
[ 3841 3832 3831 3830 ] final  -32.15 input -179.91 | X-H torsion
[ 3767 3762 3761 3758 ] final  119.61 input  -89.99 | X-H torsion
[ 2472 2467 2466 2463 ] final   -0.02 input  -89.97 | X-H torsion

> <Gold.Protein.ActiveResidues>
 VAL82   VAL86   LEU89   PHE106  VAL107  ASP110  VAL111  MET112  CYS114  THR115 
 CYS181  SER182  ILE183  PHE188  VAL189  ILE190  SER192  SER193  SER196  TRP342 
 PHE345  PHE346  HIS349  VAL350  TYR365  THR369  GLY372  TYR373 

> <Gold.Protein.RotatedAtoms>
    4.9101   -9.2438    4.8624 H   0  0  0  0  0  0  0  0  0  0  0  0  # atno 1303 bound_to 1298
    0.9418   -9.2851    8.2916 H   0  0  0  0  0  0  0  0  0  0  0  0  # atno 2461 bound_to 2456
   -3.7976   -4.8760    8.0734 H   0  0  0  0  0  0  0  0  0  0  0  0  # atno 2472 bound_to 2467
    2.7757   -8.2221    4.3545 H   0  0  0  0  0  0  0  0  0  0  0  0  # atno 2515 bound_to 2510
   -3.3355  -16.5309   13.8868 H   0  0  0  0  0  0  0  0  0  0  0  0  # atno 3721 bound_to 3712
   -3.9567  -23.1919   10.8983 H   0  0  0  0  0  0  0  0  0  0  0  0  # atno 3767 bound_to 3762
    1.5669  -20.1057    9.3225 H   0  0  0  0  0  0  0  0  0  0  0  0  # atno 3841 bound_to 3832
    3.6828  -10.2085    4.3833 LP  0  0  0  0  0  0  0  0  0  0  0  0  # atno 4297 bound_to 1298
    3.7690   -8.6690    3.8457 LP  0  0  0  0  0  0  0  0  0  0  0  0  # atno 4298 bound_to 1298
    2.1456   -8.3230    7.7506 LP  0  0  0  0  0  0  0  0  0  0  0  0  # atno 4299 bound_to 2456
    0.6503   -8.2003    7.1061 LP  0  0  0  0  0  0  0  0  0  0  0  0  # atno 4300 bound_to 2456
    2.4440   -9.1836    5.6317 LP  0  0  0  0  0  0  0  0  0  0  0  0  # atno 4301 bound_to 2510
    2.0768   -7.5935    5.6894 LP  0  0  0  0  0  0  0  0  0  0  0  0  # atno 4302 bound_to 2510
   -2.8893  -17.8581   13.1012 LP  0  0  0  0  0  0  0  0  0  0  0  0  # atno 4306 bound_to 3712
   -2.7875  -17.7830   14.7293 LP  0  0  0  0  0  0  0  0  0  0  0  0  # atno 4307 bound_to 3712
    2.6207  -19.8588    8.1373 LP  0  0  0  0  0  0  0  0  0  0  0  0  # atno 4314 bound_to 3832
    2.7987  -21.1214    9.1575 LP  0  0  0  0  0  0  0  0  0  0  0  0  # atno 4315 bound_to 3832
   -5.3269  -22.7124   10.1502 LP  0  0  0  0  0  0  0  0  0  0  0  0  # atno 4318 bound_to 3762
   -4.8435  -21.9709   11.5225 LP  0  0  0  0  0  0  0  0  0  0  0  0  # atno 4319 bound_to 3762
   -4.5018   -5.4428    9.4333 LP  0  0  0  0  0  0  0  0  0  0  0  0  # atno 4320 bound_to 2467
   -5.4174   -5.0746    8.1323 LP  0  0  0  0  0  0  0  0  0  0  0  0  # atno 4321 bound_to 2467

> <Gold.Score>
     Score     S(PLP)   S(hbond)     S(cho)   S(metal)  DE(clash)   DE(tors)     intcor
     43.24     -41.68       0.56       0.00       0.00       0.00       0.06       0.00

> <Gold.PLP.Fitness>
43.2431

> <Gold.PLP.PLP>
-41.6760

> <Gold.PLP.part.hbond>
-1.0000

> <Gold.PLP.part.metal>
0.0000

> <Gold.PLP.part.buried>
-3.9462

> <Gold.PLP.part.nonpolar>
-37.7407

> <Gold.PLP.part.repulsive>
0.0523

> <Gold.PLP.ligand.clash>
0.0000

> <Gold.PLP.ligand.torsion>
0.0589

> <Gold.PLP.Chemscore.Hbond>
0.5616

> <Gold.PLP.Chemscore.CHOScore>
0.0000

> <Gold.PLP.Chemscore.Metal>
0.0000

> <Gold.Chemscore.Hbonds>
donor molecule, donor type, donor heavy atom, donor atom, acceptor molecule, acceptor atom, score
      P1  H  2456  2461       L1     5  0.56

> <Gold.PLP.Chemscore.Internal.Correction>
0.0000

