#       Name:                EN300-269527_i002
#       Creating user name   fsindt
#       Creation time:       Wed Mar  1 03:27:04 2023


#       File generated by GOLD software.
#

@<TRIPOS>MOLECULE
EN300-269527_i002|amine_7|mol2|10216|dock12
    32    33     1
SMALL
USER_CHARGES


@<TRIPOS>ATOM
      1 C1          -1.2198  -9.6046  10.7351 C.3            1 <1>                0.0000
      2 C2          -2.2425 -10.6877  11.0919 C.3            1 <1>                0.0000
      3 C3          -2.0618 -11.8772  10.1439 C.3            1 <1>                0.0000
      4 C4          -0.6205 -12.3839  10.2423 C.3            1 <1>                0.0000
      5 O5           0.2796 -11.3195   9.9281 O.3            1 <1>                0.0000
      6 C6           0.1889 -10.1991  10.8105 C.3            1 <1>                0.0000
      7 C7          -0.4155 -13.5339   9.2541 C.3            1 <1>                0.0000
      8 C8          -0.3021 -12.9734   7.8335 C.3            1 <1>                0.0000
      9 C9          -0.0191 -14.1234   6.8626 C.3            1 <1>                0.0000
     10 C10          1.2525 -14.8528   7.3015 C.3            1 <1>                0.0000
     11 N11          1.0712 -15.3878   8.6563 N.4            1 <1>                1.0000
     12 C12          0.8708 -14.2852   9.6043 C.3            1 <1>                0.0000
     13 H13         -1.4092  -9.2438   9.7241 H              1 <1>                0.0000
     14 H14         -1.3044  -8.7774  11.4398 H              1 <1>                0.0000
     15 H15         -2.0846 -11.0136  12.1200 H              1 <1>                0.0000
     16 H16         -3.2504 -10.2867  10.9859 H              1 <1>                0.0000
     17 H17         -2.7486 -12.6753  10.4259 H              1 <1>                0.0000
     18 H18         -2.2682 -11.5623   9.1210 H              1 <1>                0.0000
     19 H19         -0.4274 -12.7362  11.2555 H              1 <1>                0.0000
     20 H20          0.9182  -9.4444  10.5160 H              1 <1>                0.0000
     21 H21          0.3927 -10.5228  11.8312 H              1 <1>                0.0000
     22 H22         -1.2633 -14.2168   9.3094 H              1 <1>                0.0000
     23 H23         -1.2373 -12.4859   7.5584 H              1 <1>                0.0000
     24 H24          0.5131 -12.2512   7.7906 H              1 <1>                0.0000
     25 H25         -0.8581 -14.8192   6.8681 H              1 <1>                0.0000
     26 H26          0.1181 -13.7255   5.8572 H              1 <1>                0.0000
     27 H27          1.4570 -15.6722   6.6122 H              1 <1>                0.0000
     28 H28          2.0909 -14.1563   7.2954 H              1 <1>                0.0000
     29 H29          1.7172 -13.6008   9.5492 H              1 <1>                0.0000
     30 H30          0.7935 -14.6854  10.6153 H              1 <1>                0.0000
     31 H31          0.2652 -15.9944   8.6722 H              1 <1>                0.0000
     32 H32          1.8906 -15.9133   8.9216 H              1 <1>                0.0000
@<TRIPOS>BOND
    1    1    2 1     
    2    1    6 1     
    3    1   13 1     
    4    1   14 1     
    5    2    3 1     
    6    2   15 1     
    7    2   16 1     
    8    3    4 1     
    9    3   17 1     
   10    3   18 1     
   11    4    5 1     
   12    4    7 1     
   13    4   19 1     
   14    5    6 1     
   15    6   20 1     
   16    6   21 1     
   17    7    8 1     
   18    7   12 1     
   19    7   22 1     
   20    8    9 1     
   21    8   23 1     
   22    8   24 1     
   23    9   10 1     
   24    9   25 1     
   25    9   26 1     
   26   10   11 1     
   27   10   27 1     
   28   10   28 1     
   29   11   12 1     
   30   11   31 1     
   31   11   32 1     
   32   12   29 1     
   33   12   30 1     
@<TRIPOS>SUBSTRUCTURE
      1 ****           1
@<TRIPOS>SET
DONOR_HYDROGENS      STATIC     ATOMS    <user>   **** ""
2 31 32
ATOM$RED        STATIC     ATOMS    COLORGROUP SYSTEM
2 31 32
@<TRIPOS>COMMENT
> <Gold.Version>
2022.2.0

> <Gold.Id.Protein>
3pbl|protein|mol2

> <Gold.Protein.RotatedTorsions>
[ 1303 1298 1297 1294 ] final   88.99 input  179.99 | X-H torsion
[ 2461 2456 2455 2452 ] final  -90.75 input   30.03 | X-H torsion
[ 2515 2510 2509 2506 ] final   87.58 input  -89.99 | X-H torsion
[ 3721 3712 3711 3710 ] final   30.62 input -179.91 | X-H torsion
[ 3841 3832 3831 3830 ] final  -20.08 input -179.91 | X-H torsion
[ 3767 3762 3761 3758 ] final -159.62 input  -89.99 | X-H torsion
[ 2472 2467 2466 2463 ] final   61.01 input  -89.97 | X-H torsion

> <Gold.Protein.ActiveResidues>
 VAL82   VAL86   LEU89   PHE106  VAL107  ASP110  VAL111  MET112  CYS114  THR115 
 CYS181  SER182  ILE183  PHE188  VAL189  ILE190  SER192  SER193  SER196  TRP342 
 PHE345  PHE346  HIS349  VAL350  TYR365  THR369  GLY372  TYR373 

> <Gold.Protein.RotatedAtoms>
    4.4016  -10.1292    4.8526 H   0  0  0  0  0  0  0  0  0  0  0  0  # atno 1303 bound_to 1298
    0.3563   -8.9158    7.7184 H   0  0  0  0  0  0  0  0  0  0  0  0  # atno 2461 bound_to 2456
   -4.6595   -4.8219    7.6600 H   0  0  0  0  0  0  0  0  0  0  0  0  # atno 2472 bound_to 2467
    2.0486   -7.7048    5.8136 H   0  0  0  0  0  0  0  0  0  0  0  0  # atno 2515 bound_to 2510
   -2.4837  -18.0322   13.7912 H   0  0  0  0  0  0  0  0  0  0  0  0  # atno 3721 bound_to 3712
   -4.3127  -22.2930   11.6456 H   0  0  0  0  0  0  0  0  0  0  0  0  # atno 3767 bound_to 3762
    1.6039  -20.2491    9.4281 H   0  0  0  0  0  0  0  0  0  0  0  0  # atno 3841 bound_to 3832
    3.3397   -9.4165    3.8375 LP  0  0  0  0  0  0  0  0  0  0  0  0  # atno 4297 bound_to 1298
    4.6207   -8.5753    4.4013 LP  0  0  0  0  0  0  0  0  0  0  0  0  # atno 4298 bound_to 1298
    1.8782   -8.9747    8.3083 LP  0  0  0  0  0  0  0  0  0  0  0  0  # atno 4299 bound_to 2456
    1.5030   -7.9177    7.1215 LP  0  0  0  0  0  0  0  0  0  0  0  0  # atno 4300 bound_to 2456
    2.7323   -8.0599    4.3740 LP  0  0  0  0  0  0  0  0  0  0  0  0  # atno 4301 bound_to 2510
    2.5160   -9.2348    5.4874 LP  0  0  0  0  0  0  0  0  0  0  0  0  # atno 4302 bound_to 2510
   -3.2274  -17.0076   14.7787 LP  0  0  0  0  0  0  0  0  0  0  0  0  # atno 4306 bound_to 3712
   -3.4327  -16.9002   13.1622 LP  0  0  0  0  0  0  0  0  0  0  0  0  # atno 4307 bound_to 3712
    2.4475  -19.7578    8.1541 LP  0  0  0  0  0  0  0  0  0  0  0  0  # atno 4314 bound_to 3832
    2.9292  -21.0567    9.0187 LP  0  0  0  0  0  0  0  0  0  0  0  0  # atno 4315 bound_to 3832
   -4.3032  -23.3352   10.3884 LP  0  0  0  0  0  0  0  0  0  0  0  0  # atno 4318 bound_to 3762
   -5.5113  -22.2467   10.5374 LP  0  0  0  0  0  0  0  0  0  0  0  0  # atno 4319 bound_to 3762
   -3.7201   -5.1813    8.9464 LP  0  0  0  0  0  0  0  0  0  0  0  0  # atno 4320 bound_to 2467
   -5.3373   -5.3903    9.0326 LP  0  0  0  0  0  0  0  0  0  0  0  0  # atno 4321 bound_to 2467

> <Gold.Score>
     Score     S(PLP)   S(hbond)     S(cho)   S(metal)  DE(clash)   DE(tors)     intcor
     47.53     -41.99       2.00       0.00       0.00       0.00       0.23       0.00

> <Gold.PLP.Fitness>
47.5269

> <Gold.PLP.PLP>
-41.9897

> <Gold.PLP.part.hbond>
-1.0000

> <Gold.PLP.part.metal>
0.0000

> <Gold.PLP.part.buried>
-4.0040

> <Gold.PLP.part.nonpolar>
-37.4274

> <Gold.PLP.part.repulsive>
0.0261

> <Gold.PLP.ligand.clash>
0.0000

> <Gold.PLP.ligand.torsion>
0.2314

> <Gold.PLP.Chemscore.Hbond>
2.0000

> <Gold.PLP.Chemscore.CHOScore>
0.0000

> <Gold.PLP.Chemscore.Metal>
0.0000

> <Gold.Chemscore.Hbonds>
donor molecule, donor type, donor heavy atom, donor atom, acceptor molecule, acceptor atom, score
      L1  H    11    32       P1  1227  2.00

> <Gold.PLP.Chemscore.Internal.Correction>
0.0000

