#       Name:                EN300-269527_i002
#       Creating user name   fsindt
#       Creation time:       Wed Mar  1 03:27:03 2023


#       File generated by GOLD software.
#

@<TRIPOS>MOLECULE
EN300-269527_i002|amine_7|mol2|10216|dock8
    32    33     1
SMALL
USER_CHARGES


@<TRIPOS>ATOM
      1 C1          -1.5817  -9.9570  10.1053 C.3            1 <1>                0.0000
      2 C2          -1.2370 -10.9620   9.0018 C.3            1 <1>                0.0000
      3 C3          -0.3036 -12.0327   9.5750 C.3            1 <1>                0.0000
      4 C4          -0.9799 -12.6982  10.7764 C.3            1 <1>                0.0000
      5 O5          -1.3014 -11.7041  11.7513 O.3            1 <1>                0.0000
      6 C6          -2.2085 -10.7026  11.2862 C.3            1 <1>                0.0000
      7 C7          -0.0295 -13.7274  11.3915 C.3            1 <1>                0.0000
      8 C8          -0.7126 -14.4071  12.5817 C.3            1 <1>                0.0000
      9 C9           0.2158 -15.4889  13.1410 C.3            1 <1>                0.0000
     10 C10          0.5633 -16.4802  12.0282 C.3            1 <1>                0.0000
     11 N11          1.2370 -15.7741  10.9318 N.4            1 <1>                1.0000
     12 C12          0.3271 -14.7840  10.3436 C.3            1 <1>                0.0000
     13 H13         -0.6737  -9.4516  10.4342 H              1 <1>                0.0000
     14 H14         -2.2895  -9.2226   9.7210 H              1 <1>                0.0000
     15 H15         -2.1509 -11.4318   8.6382 H              1 <1>                0.0000
     16 H16         -0.7392 -10.4458   8.1809 H              1 <1>                0.0000
     17 H17         -0.0974 -12.7827   8.8114 H              1 <1>                0.0000
     18 H18          0.6303 -11.5692   9.8932 H              1 <1>                0.0000
     19 H19         -1.8930 -13.1958  10.4499 H              1 <1>                0.0000
     20 H20         -2.4167  -9.9983  12.0917 H              1 <1>                0.0000
     21 H21         -3.1378 -11.1742  10.9664 H              1 <1>                0.0000
     22 H22          0.8785 -13.2280  11.7295 H              1 <1>                0.0000
     23 H23         -0.9177 -13.6672  13.3554 H              1 <1>                0.0000
     24 H24         -1.6472 -14.8624  12.2543 H              1 <1>                0.0000
     25 H25          1.1294 -15.0268  13.5151 H              1 <1>                0.0000
     26 H26         -0.2859 -16.0148  13.9533 H              1 <1>                0.0000
     27 H27          1.2241 -17.2519  12.4230 H              1 <1>                0.0000
     28 H28         -0.3509 -16.9419  11.6550 H              1 <1>                0.0000
     29 H29         -0.5820 -15.2818  10.0063 H              1 <1>                0.0000
     30 H30          0.8134 -14.3034   9.4946 H              1 <1>                0.0000
     31 H31          2.0568 -15.3062  11.2880 H              1 <1>                0.0000
     32 H32          1.5123 -16.4386  10.2242 H              1 <1>                0.0000
@<TRIPOS>BOND
    1    1    2 1     
    2    1    6 1     
    3    1   13 1     
    4    1   14 1     
    5    2    3 1     
    6    2   15 1     
    7    2   16 1     
    8    3    4 1     
    9    3   17 1     
   10    3   18 1     
   11    4    5 1     
   12    4    7 1     
   13    4   19 1     
   14    5    6 1     
   15    6   20 1     
   16    6   21 1     
   17    7    8 1     
   18    7   12 1     
   19    7   22 1     
   20    8    9 1     
   21    8   23 1     
   22    8   24 1     
   23    9   10 1     
   24    9   25 1     
   25    9   26 1     
   26   10   11 1     
   27   10   27 1     
   28   10   28 1     
   29   11   12 1     
   30   11   31 1     
   31   11   32 1     
   32   12   29 1     
   33   12   30 1     
@<TRIPOS>SUBSTRUCTURE
      1 ****           1
@<TRIPOS>SET
DONOR_HYDROGENS      STATIC     ATOMS    <user>   **** ""
2 31 32
ATOM$RED        STATIC     ATOMS    COLORGROUP SYSTEM
2 31 32
@<TRIPOS>COMMENT
> <Gold.Version>
2022.2.0

> <Gold.Id.Protein>
3pbl|protein|mol2

> <Gold.Protein.RotatedTorsions>
[ 1303 1298 1297 1294 ] final   94.64 input  179.99 | X-H torsion
[ 2461 2456 2455 2452 ] final  124.68 input   30.03 | X-H torsion
[ 2515 2510 2509 2506 ] final  124.99 input  -89.99 | X-H torsion
[ 3721 3712 3711 3710 ] final -175.32 input -179.91 | X-H torsion
[ 3841 3832 3831 3830 ] final -127.48 input -179.91 | X-H torsion
[ 3767 3762 3761 3758 ] final  145.87 input  -89.99 | X-H torsion
[ 2472 2467 2466 2463 ] final  -33.19 input  -89.97 | X-H torsion

> <Gold.Protein.ActiveResidues>
 VAL82   VAL86   LEU89   PHE106  VAL107  ASP110  VAL111  MET112  CYS114  THR115 
 CYS181  SER182  ILE183  PHE188  VAL189  ILE190  SER192  SER193  SER196  TRP342 
 PHE345  PHE346  HIS349  VAL350  TYR365  THR369  GLY372  TYR373 

> <Gold.Protein.RotatedAtoms>
    4.4731  -10.0777    4.8823 H   0  0  0  0  0  0  0  0  0  0  0  0  # atno 1303 bound_to 1298
    2.0963   -8.7015    8.1116 H   0  0  0  0  0  0  0  0  0  0  0  0  # atno 2461 bound_to 2456
   -3.6346   -5.0340    8.5615 H   0  0  0  0  0  0  0  0  0  0  0  0  # atno 2472 bound_to 2467
    2.0517   -8.2458    6.0829 H   0  0  0  0  0  0  0  0  0  0  0  0  # atno 2515 bound_to 2510
   -3.3302  -16.5826   13.6124 H   0  0  0  0  0  0  0  0  0  0  0  0  # atno 3721 bound_to 3712
   -3.9109  -22.9439   11.2447 H   0  0  0  0  0  0  0  0  0  0  0  0  # atno 3767 bound_to 3762
    2.3258  -19.6171    8.4151 H   0  0  0  0  0  0  0  0  0  0  0  0  # atno 3841 bound_to 3832
    3.3310   -9.5047    3.8657 LP  0  0  0  0  0  0  0  0  0  0  0  0  # atno 4297 bound_to 1298
    4.5579   -8.5387    4.3434 LP  0  0  0  0  0  0  0  0  0  0  0  0  # atno 4298 bound_to 1298
    1.1145   -7.9656    7.0337 LP  0  0  0  0  0  0  0  0  0  0  0  0  # atno 4299 bound_to 2456
    0.5272   -9.1412    8.0030 LP  0  0  0  0  0  0  0  0  0  0  0  0  # atno 4300 bound_to 2456
    2.5066   -7.5794    4.6635 LP  0  0  0  0  0  0  0  0  0  0  0  0  # atno 4301 bound_to 2510
    2.7386   -9.1739    4.9285 LP  0  0  0  0  0  0  0  0  0  0  0  0  # atno 4302 bound_to 2510
   -2.7603  -18.0516   13.3042 LP  0  0  0  0  0  0  0  0  0  0  0  0  # atno 4306 bound_to 3712
   -2.9225  -17.5298   14.8431 LP  0  0  0  0  0  0  0  0  0  0  0  0  # atno 4307 bound_to 3712
    3.0125  -20.9838    8.9019 LP  0  0  0  0  0  0  0  0  0  0  0  0  # atno 4314 bound_to 3832
    1.5302  -20.5608    9.4410 LP  0  0  0  0  0  0  0  0  0  0  0  0  # atno 4315 bound_to 3832
   -5.0366  -23.0155   10.0639 LP  0  0  0  0  0  0  0  0  0  0  0  0  # atno 4318 bound_to 3762
   -5.1796  -21.9158   11.2626 LP  0  0  0  0  0  0  0  0  0  0  0  0  # atno 4319 bound_to 3762
   -5.0249   -5.4550    9.3074 LP  0  0  0  0  0  0  0  0  0  0  0  0  # atno 4320 bound_to 2467
   -5.0572   -4.9046    7.7703 LP  0  0  0  0  0  0  0  0  0  0  0  0  # atno 4321 bound_to 2467

> <Gold.Score>
     Score     S(PLP)   S(hbond)     S(cho)   S(metal)  DE(clash)   DE(tors)     intcor
     41.40     -35.40       2.00       0.00       0.00       0.00       0.00       0.00

> <Gold.PLP.Fitness>
41.3980

> <Gold.PLP.PLP>
-35.3987

> <Gold.PLP.part.hbond>
-1.0000

> <Gold.PLP.part.metal>
0.0000

> <Gold.PLP.part.buried>
-3.9535

> <Gold.PLP.part.nonpolar>
-31.0545

> <Gold.PLP.part.repulsive>
0.0349

> <Gold.PLP.ligand.clash>
0.0000

> <Gold.PLP.ligand.torsion>
0.0004

> <Gold.PLP.Chemscore.Hbond>
2.0000

> <Gold.PLP.Chemscore.CHOScore>
0.0000

> <Gold.PLP.Chemscore.Metal>
0.0000

> <Gold.Chemscore.Hbonds>
donor molecule, donor type, donor heavy atom, donor atom, acceptor molecule, acceptor atom, score
      L1  H    11    32       P1  1227  2.00

> <Gold.PLP.Chemscore.Internal.Correction>
0.0000

