#       Name:                EN300-269527_i002
#       Creating user name   fsindt
#       Creation time:       Wed Mar  1 03:27:04 2023


#       File generated by GOLD software.
#

@<TRIPOS>MOLECULE
EN300-269527_i002|amine_7|mol2|10216|dock13
    32    33     1
SMALL
USER_CHARGES


@<TRIPOS>ATOM
      1 C1          -2.0366 -10.6490  10.5858 C.3            1 <1>                0.0000
      2 C2          -1.3482 -11.4758  11.6762 C.3            1 <1>                0.0000
      3 C3          -0.9466 -12.8345  11.0943 C.3            1 <1>                0.0000
      4 C4          -0.0452 -12.6133   9.8768 C.3            1 <1>                0.0000
      5 O5          -0.7344 -11.8122   8.9149 O.3            1 <1>                0.0000
      6 C6          -1.0932 -10.5123   9.3879 C.3            1 <1>                0.0000
      7 C7           0.3114 -13.9645   9.2538 C.3            1 <1>                0.0000
      8 C8          -0.8185 -14.4123   8.3222 C.3            1 <1>                0.0000
      9 C9          -0.4177 -15.7257   7.6444 C.3            1 <1>                0.0000
     10 C10          0.9038 -15.5261   6.8991 C.3            1 <1>                0.0000
     11 N11          1.9491 -15.1247   7.8480 N.4            1 <1>                1.0000
     12 C12          1.6059 -13.8303   8.4488 C.3            1 <1>                0.0000
     13 H13         -2.9526 -11.1499  10.2727 H              1 <1>                0.0000
     14 H14         -2.2763  -9.6597  10.9755 H              1 <1>                0.0000
     15 H15         -0.4586 -10.9510  12.0246 H              1 <1>                0.0000
     16 H16         -2.0351 -11.6245  12.5093 H              1 <1>                0.0000
     17 H17         -0.4068 -13.4083  11.8477 H              1 <1>                0.0000
     18 H18         -1.8407 -13.3796  10.7914 H              1 <1>                0.0000
     19 H19          0.8669 -12.1040  10.1876 H              1 <1>                0.0000
     20 H20         -1.5939  -9.9611   8.5919 H              1 <1>                0.0000
     21 H21         -0.1947  -9.9754   9.6923 H              1 <1>                0.0000
     22 H22          0.4476 -14.7044  10.0426 H              1 <1>                0.0000
     23 H23         -1.7295 -14.5640   8.9009 H              1 <1>                0.0000
     24 H24         -0.9900 -13.6483   7.5639 H              1 <1>                0.0000
     25 H25         -0.2961 -16.5025   8.3992 H              1 <1>                0.0000
     26 H26         -1.1929 -16.0220   6.9378 H              1 <1>                0.0000
     27 H27          1.1920 -16.4594   6.4152 H              1 <1>                0.0000
     28 H28          0.7810 -14.7493   6.1443 H              1 <1>                0.0000
     29 H29          1.4681 -13.0896   7.6611 H              1 <1>                0.0000
     30 H30          2.4124 -13.5113   9.1092 H              1 <1>                0.0000
     31 H31          2.0283 -15.8209   8.5740 H              1 <1>                0.0000
     32 H32          2.8302 -15.0460   7.3627 H              1 <1>                0.0000
@<TRIPOS>BOND
    1    1    2 1     
    2    1    6 1     
    3    1   13 1     
    4    1   14 1     
    5    2    3 1     
    6    2   15 1     
    7    2   16 1     
    8    3    4 1     
    9    3   17 1     
   10    3   18 1     
   11    4    5 1     
   12    4    7 1     
   13    4   19 1     
   14    5    6 1     
   15    6   20 1     
   16    6   21 1     
   17    7    8 1     
   18    7   12 1     
   19    7   22 1     
   20    8    9 1     
   21    8   23 1     
   22    8   24 1     
   23    9   10 1     
   24    9   25 1     
   25    9   26 1     
   26   10   11 1     
   27   10   27 1     
   28   10   28 1     
   29   11   12 1     
   30   11   31 1     
   31   11   32 1     
   32   12   29 1     
   33   12   30 1     
@<TRIPOS>SUBSTRUCTURE
      1 ****           1
@<TRIPOS>SET
DONOR_HYDROGENS      STATIC     ATOMS    <user>   **** ""
2 31 32
ATOM$RED        STATIC     ATOMS    COLORGROUP SYSTEM
2 31 32
@<TRIPOS>COMMENT
> <Gold.Version>
2022.2.0

> <Gold.Id.Protein>
3pbl|protein|mol2

> <Gold.Protein.RotatedTorsions>
[ 1303 1298 1297 1294 ] final  142.69 input  179.99 | X-H torsion
[ 2461 2456 2455 2452 ] final -104.66 input   30.03 | X-H torsion
[ 2515 2510 2509 2506 ] final   87.73 input  -89.99 | X-H torsion
[ 3721 3712 3711 3710 ] final  -82.36 input -179.91 | X-H torsion
[ 3841 3832 3831 3830 ] final   -9.12 input -179.91 | X-H torsion
[ 3767 3762 3761 3758 ] final   28.98 input  -89.99 | X-H torsion
[ 2472 2467 2466 2463 ] final   78.19 input  -89.97 | X-H torsion

> <Gold.Protein.ActiveResidues>
 VAL82   VAL86   LEU89   PHE106  VAL107  ASP110  VAL111  MET112  CYS114  THR115 
 CYS181  SER182  ILE183  PHE188  VAL189  ILE190  SER192  SER193  SER196  TRP342 
 PHE345  PHE346  HIS349  VAL350  TYR365  THR369  GLY372  TYR373 

> <Gold.Protein.RotatedAtoms>
    4.8829   -9.4296    4.9156 H   0  0  0  0  0  0  0  0  0  0  0  0  # atno 1303 bound_to 1298
    0.4345   -9.0534    7.8830 H   0  0  0  0  0  0  0  0  0  0  0  0  # atno 2461 bound_to 2456
   -4.9314   -4.8713    7.7143 H   0  0  0  0  0  0  0  0  0  0  0  0  # atno 2472 bound_to 2467
    2.0483   -7.7065    5.8152 H   0  0  0  0  0  0  0  0  0  0  0  0  # atno 2515 bound_to 2510
   -2.9683  -17.0418   14.7242 H   0  0  0  0  0  0  0  0  0  0  0  0  # atno 3721 bound_to 3712
   -4.9962  -23.0466   10.0639 H   0  0  0  0  0  0  0  0  0  0  0  0  # atno 3767 bound_to 3762
    1.6660  -20.3804    9.5071 H   0  0  0  0  0  0  0  0  0  0  0  0  # atno 3841 bound_to 3832
    3.5565  -10.1223    4.2621 LP  0  0  0  0  0  0  0  0  0  0  0  0  # atno 4297 bound_to 1298
    3.9224   -8.5694    3.9137 LP  0  0  0  0  0  0  0  0  0  0  0  0  # atno 4298 bound_to 1298
    2.0187   -8.8253    8.2082 LP  0  0  0  0  0  0  0  0  0  0  0  0  # atno 4299 bound_to 2456
    1.2844   -7.9296    7.0570 LP  0  0  0  0  0  0  0  0  0  0  0  0  # atno 4300 bound_to 2456
    2.7316   -8.0577    4.3745 LP  0  0  0  0  0  0  0  0  0  0  0  0  # atno 4301 bound_to 2510
    2.5170   -9.2353    5.4853 LP  0  0  0  0  0  0  0  0  0  0  0  0  # atno 4302 bound_to 2510
   -3.4555  -16.8537   13.2060 LP  0  0  0  0  0  0  0  0  0  0  0  0  # atno 4306 bound_to 3712
   -2.6453  -18.1976   13.6577 LP  0  0  0  0  0  0  0  0  0  0  0  0  # atno 4307 bound_to 3712
    2.2826  -19.6904    8.1958 LP  0  0  0  0  0  0  0  0  0  0  0  0  # atno 4314 bound_to 3832
    3.0222  -20.9724    8.8857 LP  0  0  0  0  0  0  0  0  0  0  0  0  # atno 4315 bound_to 3832
   -5.2142  -21.9191   11.2250 LP  0  0  0  0  0  0  0  0  0  0  0  0  # atno 4318 bound_to 3762
   -3.9171  -22.9095   11.2819 LP  0  0  0  0  0  0  0  0  0  0  0  0  # atno 4319 bound_to 3762
   -3.6426   -5.0820    8.6945 LP  0  0  0  0  0  0  0  0  0  0  0  0  # atno 4320 bound_to 2467
   -5.1430   -5.4402    9.2302 LP  0  0  0  0  0  0  0  0  0  0  0  0  # atno 4321 bound_to 2467

> <Gold.Score>
     Score     S(PLP)   S(hbond)     S(cho)   S(metal)  DE(clash)   DE(tors)     intcor
     42.39     -34.86       2.83       0.00       0.00       0.00       0.49       0.00

> <Gold.PLP.Fitness>
42.3908

> <Gold.PLP.PLP>
-34.8645

> <Gold.PLP.part.hbond>
-2.0000

> <Gold.PLP.part.metal>
0.0000

> <Gold.PLP.part.buried>
-3.1788

> <Gold.PLP.part.nonpolar>
-31.3294

> <Gold.PLP.part.repulsive>
0.0780

> <Gold.PLP.ligand.clash>
0.0000

> <Gold.PLP.ligand.torsion>
0.4856

> <Gold.PLP.Chemscore.Hbond>
2.8325

> <Gold.PLP.Chemscore.CHOScore>
0.0000

> <Gold.PLP.Chemscore.Metal>
0.0000

> <Gold.Chemscore.Hbonds>
donor molecule, donor type, donor heavy atom, donor atom, acceptor molecule, acceptor atom, score
      L1  H    11    31       P1  1227  1.98
      L1  H    11    32       P1  1223  0.85

> <Gold.PLP.Chemscore.Internal.Correction>
0.0000

