#       Name:                EN300-269527_i002
#       Creating user name   fsindt
#       Creation time:       Wed Mar  1 03:27:02 2023


#       File generated by GOLD software.
#

@<TRIPOS>MOLECULE
EN300-269527_i002|amine_7|mol2|10216|dock6
    32    33     1
SMALL
USER_CHARGES


@<TRIPOS>ATOM
      1 C1          -2.7251  -9.8640  10.0217 C.3            1 <1>                0.0000
      2 C2          -3.0204 -11.3646  10.1094 C.3            1 <1>                0.0000
      3 C3          -1.9716 -12.1286   9.2956 C.3            1 <1>                0.0000
      4 C4          -0.5763 -11.7794   9.8201 C.3            1 <1>                0.0000
      5 O5          -0.3783 -10.3665   9.7390 O.3            1 <1>                0.0000
      6 C6          -1.3008  -9.6024  10.5181 C.3            1 <1>                0.0000
      7 C7           0.4802 -12.4921   8.9735 C.3            1 <1>                0.0000
      8 C8           0.2307 -14.0026   9.0096 C.3            1 <1>                0.0000
      9 C9           1.2444 -14.6995   8.0975 C.3            1 <1>                0.0000
     10 C10          1.1284 -14.1262   6.6835 C.3            1 <1>                0.0000
     11 N11          1.4036 -12.6847   6.7119 N.4            1 <1>                1.0000
     12 C12          0.3926 -12.0007   7.5270 C.3            1 <1>                0.0000
     13 H13         -2.8165  -9.5348   8.9867 H              1 <1>                0.0000
     14 H14         -3.4338  -9.3164  10.6429 H              1 <1>                0.0000
     15 H15         -2.9779 -11.6843  11.1506 H              1 <1>                0.0000
     16 H16         -4.0127 -11.5652   9.7052 H              1 <1>                0.0000
     17 H17         -2.1413 -13.2005   9.3976 H              1 <1>                0.0000
     18 H18         -2.0476 -11.8450   8.2459 H              1 <1>                0.0000
     19 H19         -0.4874 -12.0999  10.8580 H              1 <1>                0.0000
     20 H20         -1.0700  -8.5418  10.4179 H              1 <1>                0.0000
     21 H21         -1.2214  -9.8944  11.5653 H              1 <1>                0.0000
     22 H22          1.4717 -12.2774   9.3722 H              1 <1>                0.0000
     23 H23          0.3478 -14.3671  10.0302 H              1 <1>                0.0000
     24 H24         -0.7798 -14.2136   8.6597 H              1 <1>                0.0000
     25 H25          2.2521 -14.5306   8.4772 H              1 <1>                0.0000
     26 H26          1.0380 -15.7696   8.0745 H              1 <1>                0.0000
     27 H27          1.8487 -14.6204   6.0314 H              1 <1>                0.0000
     28 H28          0.1205 -14.2959   6.3046 H              1 <1>                0.0000
     29 H29         -0.5996 -12.2157   7.1302 H              1 <1>                0.0000
     30 H30          0.5695 -10.9255   7.4977 H              1 <1>                0.0000
     31 H31          2.3177 -12.5256   7.1084 H              1 <1>                0.0000
     32 H32          1.3790 -12.3201   5.7715 H              1 <1>                0.0000
@<TRIPOS>BOND
    1    1    2 1     
    2    1    6 1     
    3    1   13 1     
    4    1   14 1     
    5    2    3 1     
    6    2   15 1     
    7    2   16 1     
    8    3    4 1     
    9    3   17 1     
   10    3   18 1     
   11    4    5 1     
   12    4    7 1     
   13    4   19 1     
   14    5    6 1     
   15    6   20 1     
   16    6   21 1     
   17    7    8 1     
   18    7   12 1     
   19    7   22 1     
   20    8    9 1     
   21    8   23 1     
   22    8   24 1     
   23    9   10 1     
   24    9   25 1     
   25    9   26 1     
   26   10   11 1     
   27   10   27 1     
   28   10   28 1     
   29   11   12 1     
   30   11   31 1     
   31   11   32 1     
   32   12   29 1     
   33   12   30 1     
@<TRIPOS>SUBSTRUCTURE
      1 ****           1
@<TRIPOS>SET
DONOR_HYDROGENS      STATIC     ATOMS    <user>   **** ""
2 31 32
ATOM$RED        STATIC     ATOMS    COLORGROUP SYSTEM
2 31 32
@<TRIPOS>COMMENT
> <Gold.Version>
2022.2.0

> <Gold.Id.Protein>
3pbl|protein|mol2

> <Gold.Protein.RotatedTorsions>
[ 1303 1298 1297 1294 ] final -132.65 input  179.99 | X-H torsion
[ 2461 2456 2455 2452 ] final -138.85 input   30.03 | X-H torsion
[ 2515 2510 2509 2506 ] final -120.83 input  -89.99 | X-H torsion
[ 3721 3712 3711 3710 ] final   71.79 input -179.91 | X-H torsion
[ 3841 3832 3831 3830 ] final -144.79 input -179.91 | X-H torsion
[ 3767 3762 3761 3758 ] final -147.37 input  -89.99 | X-H torsion
[ 2472 2467 2466 2463 ] final    9.58 input  -89.97 | X-H torsion

> <Gold.Protein.ActiveResidues>
 VAL82   VAL86   LEU89   PHE106  VAL107  ASP110  VAL111  MET112  CYS114  THR115 
 CYS181  SER182  ILE183  PHE188  VAL189  ILE190  SER192  SER193  SER196  TRP342 
 PHE345  PHE346  HIS349  VAL350  TYR365  THR369  GLY372  TYR373 

> <Gold.Protein.RotatedAtoms>
    4.4018   -8.4864    4.2153 H   0  0  0  0  0  0  0  0  0  0  0  0  # atno 1303 bound_to 1298
    0.8130   -9.2662    8.2277 H   0  0  0  0  0  0  0  0  0  0  0  0  # atno 2461 bound_to 2456
   -3.8966   -4.8442    7.9548 H   0  0  0  0  0  0  0  0  0  0  0  0  # atno 2472 bound_to 2467
    2.7104   -9.2083    5.0134 H   0  0  0  0  0  0  0  0  0  0  0  0  # atno 2515 bound_to 2510
   -2.6594  -17.8093   13.2524 H   0  0  0  0  0  0  0  0  0  0  0  0  # atno 3721 bound_to 3712
   -4.4698  -22.1672   11.6459 H   0  0  0  0  0  0  0  0  0  0  0  0  # atno 3767 bound_to 3762
    2.5606  -19.7133    8.3559 H   0  0  0  0  0  0  0  0  0  0  0  0  # atno 3841 bound_to 3832
    4.6206   -9.9382    4.9300 LP  0  0  0  0  0  0  0  0  0  0  0  0  # atno 4297 bound_to 1298
    3.3396   -9.6971    3.9463 LP  0  0  0  0  0  0  0  0  0  0  0  0  # atno 4298 bound_to 1298
    2.1608   -8.4223    7.8552 LP  0  0  0  0  0  0  0  0  0  0  0  0  # atno 4299 bound_to 2456
    0.7639   -8.1199    7.0654 LP  0  0  0  0  0  0  0  0  0  0  0  0  # atno 4300 bound_to 2456
    2.0398   -8.1528    6.0632 LP  0  0  0  0  0  0  0  0  0  0  0  0  # atno 4301 bound_to 2510
    2.5464   -7.6376    4.5988 LP  0  0  0  0  0  0  0  0  0  0  0  0  # atno 4302 bound_to 2510
   -2.8904  -17.5885   14.8258 LP  0  0  0  0  0  0  0  0  0  0  0  0  # atno 4306 bound_to 3712
   -3.5669  -16.5767   13.7372 LP  0  0  0  0  0  0  0  0  0  0  0  0  # atno 4307 bound_to 3712
    2.8493  -21.1014    9.1083 LP  0  0  0  0  0  0  0  0  0  0  0  0  # atno 4314 bound_to 3832
    1.4221  -20.3320    9.3031 LP  0  0  0  0  0  0  0  0  0  0  0  0  # atno 4315 bound_to 3832
   -4.1656  -23.3247   10.5349 LP  0  0  0  0  0  0  0  0  0  0  0  0  # atno 4318 bound_to 3762
   -5.4918  -22.3830   10.3906 LP  0  0  0  0  0  0  0  0  0  0  0  0  # atno 4319 bound_to 3762
   -4.3468   -5.4192    9.4153 LP  0  0  0  0  0  0  0  0  0  0  0  0  # atno 4320 bound_to 2467
   -5.4733   -5.1301    8.2690 LP  0  0  0  0  0  0  0  0  0  0  0  0  # atno 4321 bound_to 2467

> <Gold.Score>
     Score     S(PLP)   S(hbond)     S(cho)   S(metal)  DE(clash)   DE(tors)     intcor
     43.58     -41.63       0.65       0.00       0.00       0.00       0.01       0.00

> <Gold.PLP.Fitness>
43.5790

> <Gold.PLP.PLP>
-41.6338

> <Gold.PLP.part.hbond>
-1.0000

> <Gold.PLP.part.metal>
0.0000

> <Gold.PLP.part.buried>
-3.7627

> <Gold.PLP.part.nonpolar>
-37.8936

> <Gold.PLP.part.repulsive>
0.0514

> <Gold.PLP.ligand.clash>
0.0000

> <Gold.PLP.ligand.torsion>
0.0055

> <Gold.PLP.Chemscore.Hbond>
0.6521

> <Gold.PLP.Chemscore.CHOScore>
0.0000

> <Gold.PLP.Chemscore.Metal>
0.0000

> <Gold.Chemscore.Hbonds>
donor molecule, donor type, donor heavy atom, donor atom, acceptor molecule, acceptor atom, score
      P1  H  2456  2461       L1     5  0.65

> <Gold.PLP.Chemscore.Internal.Correction>
0.0000

