#       Name:                EN300-269527_i002
#       Creating user name   fsindt
#       Creation time:       Wed Mar  1 03:27:03 2023


#       File generated by GOLD software.
#

@<TRIPOS>MOLECULE
EN300-269527_i002|amine_7|mol2|10216|dock11
    32    33     1
SMALL
USER_CHARGES


@<TRIPOS>ATOM
      1 C1          -2.2918 -10.1268  10.8758 C.3            1 <1>                0.0000
      2 C2          -3.3495 -11.0958  10.3384 C.3            1 <1>                0.0000
      3 C3          -2.7125 -11.9874   9.2682 C.3            1 <1>                0.0000
      4 C4          -1.5098 -12.7169   9.8723 C.3            1 <1>                0.0000
      5 O5          -0.5794 -11.7587  10.3806 O.3            1 <1>                0.0000
      6 C6          -1.1053 -10.9281  11.4177 C.3            1 <1>                0.0000
      7 C7          -0.8319 -13.5637   8.7933 C.3            1 <1>                0.0000
      8 C8          -0.0170 -12.6558   7.8677 C.3            1 <1>                0.0000
      9 C9           0.7194 -13.5199   6.8400 C.3            1 <1>                0.0000
     10 C10          1.5960 -14.5381   7.5725 C.3            1 <1>                0.0000
     11 N11          0.7558 -15.3925   8.4202 N.4            1 <1>                1.0000
     12 C12          0.1022 -14.5802   9.4534 C.3            1 <1>                0.0000
     13 H13         -1.9534  -9.4742  10.0710 H              1 <1>                0.0000
     14 H14         -2.7218  -9.5258  11.6768 H              1 <1>                0.0000
     15 H15         -3.7240 -11.7153  11.1534 H              1 <1>                0.0000
     16 H16         -4.1723 -10.5311   9.9001 H              1 <1>                0.0000
     17 H17         -3.4436 -12.7170   8.9196 H              1 <1>                0.0000
     18 H18         -2.3826 -11.3724   8.4309 H              1 <1>                0.0000
     19 H19         -1.8462 -13.3626  10.6834 H              1 <1>                0.0000
     20 H20         -0.3309 -10.2428  11.7625 H              1 <1>                0.0000
     21 H21         -1.4364 -11.5505  12.2491 H              1 <1>                0.0000
     22 H22         -1.5904 -14.0888   8.2127 H              1 <1>                0.0000
     23 H23         -0.6857 -11.9666   7.3520 H              1 <1>                0.0000
     24 H24          0.7071 -12.0917   8.4554 H              1 <1>                0.0000
     25 H25         -0.0063 -14.0448   6.2188 H              1 <1>                0.0000
     26 H26          1.3453 -12.8854   6.2126 H              1 <1>                0.0000
     27 H27          2.1220 -15.1549   6.8438 H              1 <1>                0.0000
     28 H28          2.3216 -14.0122   8.1932 H              1 <1>                0.0000
     29 H29          0.8595 -14.0535  10.0339 H              1 <1>                0.0000
     30 H30         -0.4748 -15.2281  10.1133 H              1 <1>                0.0000
     31 H31          0.0531 -15.8411   7.8520 H              1 <1>                0.0000
     32 H32          1.3296 -16.0962   8.8601 H              1 <1>                0.0000
@<TRIPOS>BOND
    1    1    2 1     
    2    1    6 1     
    3    1   13 1     
    4    1   14 1     
    5    2    3 1     
    6    2   15 1     
    7    2   16 1     
    8    3    4 1     
    9    3   17 1     
   10    3   18 1     
   11    4    5 1     
   12    4    7 1     
   13    4   19 1     
   14    5    6 1     
   15    6   20 1     
   16    6   21 1     
   17    7    8 1     
   18    7   12 1     
   19    7   22 1     
   20    8    9 1     
   21    8   23 1     
   22    8   24 1     
   23    9   10 1     
   24    9   25 1     
   25    9   26 1     
   26   10   11 1     
   27   10   27 1     
   28   10   28 1     
   29   11   12 1     
   30   11   31 1     
   31   11   32 1     
   32   12   29 1     
   33   12   30 1     
@<TRIPOS>SUBSTRUCTURE
      1 ****           1
@<TRIPOS>SET
DONOR_HYDROGENS      STATIC     ATOMS    <user>   **** ""
2 31 32
ATOM$RED        STATIC     ATOMS    COLORGROUP SYSTEM
2 31 32
@<TRIPOS>COMMENT
> <Gold.Version>
2022.2.0

> <Gold.Id.Protein>
3pbl|protein|mol2

> <Gold.Protein.RotatedTorsions>
[ 1303 1298 1297 1294 ] final    4.01 input  179.99 | X-H torsion
[ 2461 2456 2455 2452 ] final  117.11 input   30.03 | X-H torsion
[ 2515 2510 2509 2506 ] final -116.81 input  -89.99 | X-H torsion
[ 3721 3712 3711 3710 ] final -135.01 input -179.91 | X-H torsion
[ 3841 3832 3831 3830 ] final  163.11 input -179.91 | X-H torsion
[ 3767 3762 3761 3758 ] final  -98.53 input  -89.99 | X-H torsion
[ 2472 2467 2466 2463 ] final   68.83 input  -89.97 | X-H torsion

> <Gold.Protein.ActiveResidues>
 VAL82   VAL86   LEU89   PHE106  VAL107  ASP110  VAL111  MET112  CYS114  THR115 
 CYS181  SER182  ILE183  PHE188  VAL189  ILE190  SER192  SER193  SER196  TRP342 
 PHE345  PHE346  HIS349  VAL350  TYR365  THR369  GLY372  TYR373 

> <Gold.Protein.RotatedAtoms>
    3.4085   -9.9235    4.0827 H   0  0  0  0  0  0  0  0  0  0  0  0  # atno 1303 bound_to 1298
    2.1336   -8.6111    8.0344 H   0  0  0  0  0  0  0  0  0  0  0  0  # atno 2461 bound_to 2456
   -4.7858   -4.8412    7.6750 H   0  0  0  0  0  0  0  0  0  0  0  0  # atno 2472 bound_to 2467
    2.7302   -9.1853    4.9546 H   0  0  0  0  0  0  0  0  0  0  0  0  # atno 2515 bound_to 2510
   -3.2848  -16.5696   14.2074 H   0  0  0  0  0  0  0  0  0  0  0  0  # atno 3721 bound_to 3712
   -5.1280  -21.9141   11.3135 H   0  0  0  0  0  0  0  0  0  0  0  0  # atno 3767 bound_to 3762
    3.0753  -20.2492    8.5170 H   0  0  0  0  0  0  0  0  0  0  0  0  # atno 3841 bound_to 3832
    4.1783   -8.4837    4.0583 LP  0  0  0  0  0  0  0  0  0  0  0  0  # atno 4297 bound_to 1298
    4.7756   -9.7139    4.9507 LP  0  0  0  0  0  0  0  0  0  0  0  0  # atno 4298 bound_to 1298
    0.9963   -8.0046    7.0314 LP  0  0  0  0  0  0  0  0  0  0  0  0  # atno 4299 bound_to 2456
    0.6081   -9.1924    8.0825 LP  0  0  0  0  0  0  0  0  0  0  0  0  # atno 4300 bound_to 2456
    2.0474   -8.2169    6.0779 LP  0  0  0  0  0  0  0  0  0  0  0  0  # atno 4301 bound_to 2510
    2.5190   -7.5966    4.6429 LP  0  0  0  0  0  0  0  0  0  0  0  0  # atno 4302 bound_to 2510
   -3.0655  -17.5707   12.9714 LP  0  0  0  0  0  0  0  0  0  0  0  0  # atno 4306 bound_to 3712
   -2.6698  -18.0257   14.4890 LP  0  0  0  0  0  0  0  0  0  0  0  0  # atno 4307 bound_to 3712
    2.1180  -21.0566    9.5209 LP  0  0  0  0  0  0  0  0  0  0  0  0  # atno 4314 bound_to 3832
    1.5589  -19.7578    8.7042 LP  0  0  0  0  0  0  0  0  0  0  0  0  # atno 4315 bound_to 3832
   -3.9074  -22.9921   11.1908 LP  0  0  0  0  0  0  0  0  0  0  0  0  # atno 4318 bound_to 3762
   -5.0920  -22.9686   10.0670 LP  0  0  0  0  0  0  0  0  0  0  0  0  # atno 4319 bound_to 3762
   -3.6748   -5.1361    8.8348 LP  0  0  0  0  0  0  0  0  0  0  0  0  # atno 4320 bound_to 2467
   -5.2564   -5.4162    9.1291 LP  0  0  0  0  0  0  0  0  0  0  0  0  # atno 4321 bound_to 2467

> <Gold.Score>
     Score     S(PLP)   S(hbond)     S(cho)   S(metal)  DE(clash)   DE(tors)     intcor
     40.62     -35.46       1.89       0.00       0.00       0.00       0.25       0.00

> <Gold.PLP.Fitness>
40.6185

> <Gold.PLP.PLP>
-35.4551

> <Gold.PLP.part.hbond>
-0.9173

> <Gold.PLP.part.metal>
0.0000

> <Gold.PLP.part.buried>
-3.1354

> <Gold.PLP.part.nonpolar>
-31.8455

> <Gold.PLP.part.repulsive>
0.0102

> <Gold.PLP.ligand.clash>
0.0000

> <Gold.PLP.ligand.torsion>
0.2458

> <Gold.PLP.Chemscore.Hbond>
1.8850

> <Gold.PLP.Chemscore.CHOScore>
0.0000

> <Gold.PLP.Chemscore.Metal>
0.0000

> <Gold.Chemscore.Hbonds>
donor molecule, donor type, donor heavy atom, donor atom, acceptor molecule, acceptor atom, score
      L1  H    11    32       P1  1227  1.89

> <Gold.PLP.Chemscore.Internal.Correction>
0.0000

