#       Name:                EN300-269527_i002
#       Creating user name   fsindt
#       Creation time:       Wed Mar  1 03:27:05 2023


#       File generated by GOLD software.
#

@<TRIPOS>MOLECULE
EN300-269527_i002|amine_7|mol2|10216|dock17
    32    33     1
SMALL
USER_CHARGES


@<TRIPOS>ATOM
      1 C1           0.9941 -14.5597   7.4509 C.3            1 <1>                0.0000
      2 C2           1.4463 -13.2057   6.8955 C.3            1 <1>                0.0000
      3 C3           0.3981 -12.1458   7.2478 C.3            1 <1>                0.0000
      4 C4           0.2045 -12.1156   8.7661 C.3            1 <1>                0.0000
      5 O5          -0.1856 -13.4129   9.2211 O.3            1 <1>                0.0000
      6 C6           0.7774 -14.4363   8.9613 C.3            1 <1>                0.0000
      7 C7          -0.8846 -11.1015   9.1216 C.3            1 <1>                0.0000
      8 C8          -2.2429 -11.8068   9.1732 C.3            1 <1>                0.0000
      9 C9          -3.3134 -10.8007   9.6058 C.3            1 <1>                0.0000
     10 C10         -2.9218 -10.1967  10.9562 C.3            1 <1>                0.0000
     11 N11         -1.6278  -9.5146  10.8344 N.4            1 <1>                1.0000
     12 C12         -0.5831 -10.4863  10.4898 C.3            1 <1>                0.0000
     13 H13          0.0609 -14.8564   6.9721 H              1 <1>                0.0000
     14 H14          1.7604 -15.3090   7.2528 H              1 <1>                0.0000
     15 H15          2.4044 -12.9320   7.3375 H              1 <1>                0.0000
     16 H16          1.5485 -13.2716   5.8123 H              1 <1>                0.0000
     17 H17          0.7383 -11.1688   6.9045 H              1 <1>                0.0000
     18 H18         -0.5471 -12.3938   6.7649 H              1 <1>                0.0000
     19 H19          1.1398 -11.8281   9.2462 H              1 <1>                0.0000
     20 H20          0.4143 -15.3856   9.3553 H              1 <1>                0.0000
     21 H21          1.7202 -14.1791   9.4440 H              1 <1>                0.0000
     22 H22         -0.9108 -10.3159   8.3663 H              1 <1>                0.0000
     23 H23         -2.4882 -12.1980   8.1859 H              1 <1>                0.0000
     24 H24         -2.2013 -12.6258   9.8911 H              1 <1>                0.0000
     25 H25         -3.3902 -10.0083   8.8613 H              1 <1>                0.0000
     26 H26         -4.2735 -11.3082   9.6987 H              1 <1>                0.0000
     27 H27         -3.6819  -9.4800  11.2672 H              1 <1>                0.0000
     28 H28         -2.8454 -10.9898  11.7000 H              1 <1>                0.0000
     29 H29         -0.5566 -11.2733  11.2435 H              1 <1>                0.0000
     30 H30          0.3835  -9.9835  10.4566 H              1 <1>                0.0000
     31 H31         -1.6851  -8.8133  10.1113 H              1 <1>                0.0000
     32 H32         -1.3981  -9.0723  11.7117 H              1 <1>                0.0000
@<TRIPOS>BOND
    1    1    2 1     
    2    1    6 1     
    3    1   13 1     
    4    1   14 1     
    5    2    3 1     
    6    2   15 1     
    7    2   16 1     
    8    3    4 1     
    9    3   17 1     
   10    3   18 1     
   11    4    5 1     
   12    4    7 1     
   13    4   19 1     
   14    5    6 1     
   15    6   20 1     
   16    6   21 1     
   17    7    8 1     
   18    7   12 1     
   19    7   22 1     
   20    8    9 1     
   21    8   23 1     
   22    8   24 1     
   23    9   10 1     
   24    9   25 1     
   25    9   26 1     
   26   10   11 1     
   27   10   27 1     
   28   10   28 1     
   29   11   12 1     
   30   11   31 1     
   31   11   32 1     
   32   12   29 1     
   33   12   30 1     
@<TRIPOS>SUBSTRUCTURE
      1 ****           1
@<TRIPOS>SET
DONOR_HYDROGENS      STATIC     ATOMS    <user>   **** ""
2 31 32
ATOM$RED        STATIC     ATOMS    COLORGROUP SYSTEM
2 31 32
@<TRIPOS>COMMENT
> <Gold.Version>
2022.2.0

> <Gold.Id.Protein>
3pbl|protein|mol2

> <Gold.Protein.RotatedTorsions>
[ 1303 1298 1297 1294 ] final  117.33 input  179.99 | X-H torsion
[ 2461 2456 2455 2452 ] final  106.79 input   30.03 | X-H torsion
[ 2515 2510 2509 2506 ] final -104.91 input  -89.99 | X-H torsion
[ 3721 3712 3711 3710 ] final -107.24 input -179.91 | X-H torsion
[ 3841 3832 3831 3830 ] final  -84.96 input -179.91 | X-H torsion
[ 3767 3762 3761 3758 ] final  166.87 input  -89.99 | X-H torsion
[ 2472 2467 2466 2463 ] final  144.02 input  -89.97 | X-H torsion

> <Gold.Protein.ActiveResidues>
 VAL82   VAL86   LEU89   PHE106  VAL107  ASP110  VAL111  MET112  CYS114  THR115 
 CYS181  SER182  ILE183  PHE188  VAL189  ILE190  SER192  SER193  SER196  TRP342 
 PHE345  PHE346  HIS349  VAL350  TYR365  THR369  GLY372  TYR373 

> <Gold.Protein.RotatedAtoms>
    4.7190   -9.8081    4.9486 H   0  0  0  0  0  0  0  0  0  0  0  0  # atno 1303 bound_to 1298
    2.1594   -8.4881    7.9204 H   0  0  0  0  0  0  0  0  0  0  0  0  # atno 2461 bound_to 2456
   -5.5097   -5.2137    8.4878 H   0  0  0  0  0  0  0  0  0  0  0  0  # atno 2472 bound_to 2467
    2.7800   -9.0931    4.7896 H   0  0  0  0  0  0  0  0  0  0  0  0  # atno 2515 bound_to 2510
   -3.1432  -16.7641   14.5464 H   0  0  0  0  0  0  0  0  0  0  0  0  # atno 3721 bound_to 3712
   -3.9934  -22.6952   11.4670 H   0  0  0  0  0  0  0  0  0  0  0  0  # atno 3767 bound_to 3762
    1.8004  -19.6369    8.7581 H   0  0  0  0  0  0  0  0  0  0  0  0  # atno 3841 bound_to 3832
    3.3733   -9.8374    4.0242 LP  0  0  0  0  0  0  0  0  0  0  0  0  # atno 4297 bound_to 1298
    4.2696   -8.4756    4.1186 LP  0  0  0  0  0  0  0  0  0  0  0  0  # atno 4298 bound_to 1298
    0.8426   -8.0744    7.0474 LP  0  0  0  0  0  0  0  0  0  0  0  0  # atno 4299 bound_to 2456
    0.7361   -9.2457    8.1803 LP  0  0  0  0  0  0  0  0  0  0  0  0  # atno 4300 bound_to 2456
    2.0808   -8.4087    6.0967 LP  0  0  0  0  0  0  0  0  0  0  0  0  # atno 4301 bound_to 2510
    2.4358   -7.4970    4.7892 LP  0  0  0  0  0  0  0  0  0  0  0  0  # atno 4302 bound_to 2510
   -3.2915  -17.1717   13.0005 LP  0  0  0  0  0  0  0  0  0  0  0  0  # atno 4306 bound_to 3712
   -2.6073  -18.2002   14.0685 LP  0  0  0  0  0  0  0  0  0  0  0  0  # atno 4307 bound_to 3712
    3.1074  -20.5016    8.4114 LP  0  0  0  0  0  0  0  0  0  0  0  0  # atno 4314 bound_to 3832
    2.0422  -21.0202    9.5353 LP  0  0  0  0  0  0  0  0  0  0  0  0  # atno 4315 bound_to 3832
   -4.7525  -23.2023   10.1129 LP  0  0  0  0  0  0  0  0  0  0  0  0  # atno 4318 bound_to 3762
   -5.3812  -21.9776   10.9914 LP  0  0  0  0  0  0  0  0  0  0  0  0  # atno 4319 bound_to 3762
   -4.0803   -4.8109    7.8087 LP  0  0  0  0  0  0  0  0  0  0  0  0  # atno 4320 bound_to 2467
   -4.1271   -5.3689    9.3427 LP  0  0  0  0  0  0  0  0  0  0  0  0  # atno 4321 bound_to 2467

> <Gold.Score>
     Score     S(PLP)   S(hbond)     S(cho)   S(metal)  DE(clash)   DE(tors)     intcor
     41.61     -43.23       0.00       0.00       0.00       0.00       0.81       0.00

> <Gold.PLP.Fitness>
41.6065

> <Gold.PLP.PLP>
-43.2257

> <Gold.PLP.part.hbond>
-0.7317

> <Gold.PLP.part.metal>
0.0000

> <Gold.PLP.part.buried>
-3.8502

> <Gold.PLP.part.nonpolar>
-39.3134

> <Gold.PLP.part.repulsive>
0.0767

> <Gold.PLP.ligand.clash>
0.0000

> <Gold.PLP.ligand.torsion>
0.8096

> <Gold.PLP.Chemscore.Hbond>
0.0000

> <Gold.PLP.Chemscore.CHOScore>
0.0000

> <Gold.PLP.Chemscore.Metal>
0.0000

> <Gold.PLP.Chemscore.Internal.Correction>
0.0000

