#       Name:                EN300-43851_i001
#       Creating user name   fsindt
#       Creation time:       Mon Feb 27 17:50:16 2023


#       File generated by GOLD software.
#

@<TRIPOS>MOLECULE
EN300-43851_i001|acide_3|mol2|206|dock6
    23    24     1
SMALL
USER_CHARGES


@<TRIPOS>ATOM
      1 C1           0.1626 -14.5415   6.6003 C.3            1 <1>                0.0000
      2 C2           0.2096 -14.4594   8.1043 C.2            1 <1>                0.0000
      3 N3           0.0696 -15.4540   8.9485 N.2            1 <1>                0.0000
      4 N4           0.1837 -14.9216  10.2394 N.pl3          1 <1>                0.0000
      5 N5           0.3845 -13.6533  10.1510 N.2            1 <1>                0.0000
      6 C6           0.4182 -13.3020   8.8769 C.2            1 <1>                0.0000
      7 C7           0.6272 -11.9380   8.3580 C.2            1 <1>                0.0000
      8 O8           0.8316 -11.7623   7.1650 O.co2          1 <1>                0.0000
      9 O9           0.5965 -10.9823   9.1205 O.co2          1 <1>               -1.0000
     10 C10          0.0938 -15.6512  11.4326 C.ar           1 <1>                0.0000
     11 C11          0.1913 -14.9996  12.6549 C.ar           1 <1>                0.0000
     12 C12          0.1026 -15.7202  13.8294 C.ar           1 <1>                0.0000
     13 C13         -0.0835 -17.0920  13.7890 C.ar           1 <1>                0.0000
     14 F14         -0.1704 -17.7953  14.9392 F              1 <1>                0.0000
     15 C15         -0.1809 -17.7439  12.5708 C.ar           1 <1>                0.0000
     16 C16         -0.0984 -17.0259  11.3941 C.ar           1 <1>                0.0000
     17 H17         -0.8631 -14.3987   6.2604 H              1 <1>                0.0000
     18 H18          0.7981 -13.7652   6.1739 H              1 <1>                0.0000
     19 H19          0.5191 -15.5201   6.2786 H              1 <1>                0.0000
     20 H20          0.3368 -13.9299  12.6870 H              1 <1>                0.0000
     21 H21          0.1787 -15.2138  14.7803 H              1 <1>                0.0000
     22 H22         -0.3259 -18.8137  12.5412 H              1 <1>                0.0000
     23 H23         -0.1748 -17.5346  10.4443 H              1 <1>                0.0000
@<TRIPOS>BOND
    1    1    2 1     
    2    1   17 1     
    3    1   18 1     
    4    1   19 1     
    5    2    3 2     
    6    2    6 1     
    7    3    4 1     
    8    4    5 1     
    9    4   10 1     
   10    5    6 2     
   11    6    7 1     
   12    7    8 ar    
   13    7    9 ar    
   14   10   11 ar    
   15   10   16 ar    
   16   11   12 ar    
   17   11   20 1     
   18   12   13 ar    
   19   12   21 1     
   20   13   14 1     
   21   13   15 ar    
   22   15   16 ar    
   23   15   22 1     
   24   16   23 1     
@<TRIPOS>SUBSTRUCTURE
      1 ****           1
@<TRIPOS>COMMENT
> <Gold.Version>
2022.2.0

> <Gold.Id.Protein>
3pbl|protein|mol2

> <Gold.Protein.RotatedTorsions>
[ 1303 1298 1297 1294 ] final   95.60 input  179.99 | X-H torsion
[ 2461 2456 2455 2452 ] final -148.31 input   30.03 | X-H torsion
[ 2515 2510 2509 2506 ] final  -98.89 input  -89.99 | X-H torsion
[ 3721 3712 3711 3710 ] final  -95.63 input -179.91 | X-H torsion
[ 3841 3832 3831 3830 ] final  -21.08 input -179.91 | X-H torsion
[ 3767 3762 3761 3758 ] final  159.38 input  -89.99 | X-H torsion
[ 2472 2467 2466 2463 ] final  -18.42 input  -89.97 | X-H torsion

> <Gold.Protein.ActiveResidues>
 VAL82   VAL86   LEU89   PHE106  VAL107  ASP110  VAL111  MET112  CYS114  THR115 
 CYS181  SER182  ILE183  PHE188  VAL189  ILE190  SER192  SER193  SER196  TRP342 
 PHE345  PHE346  HIS349  VAL350  TYR365  THR369  GLY372  TYR373 

> <Gold.Protein.RotatedAtoms>
    4.4849  -10.0683    4.8869 H   0  0  0  0  0  0  0  0  0  0  0  0  # atno 1303 bound_to 1298
    0.9515   -9.2858    8.2957 H   0  0  0  0  0  0  0  0  0  0  0  0  # atno 2461 bound_to 2456
   -3.6704   -4.9562    8.3347 H   0  0  0  0  0  0  0  0  0  0  0  0  # atno 2472 bound_to 2467
    2.7995   -9.0338    4.7129 H   0  0  0  0  0  0  0  0  0  0  0  0  # atno 2515 bound_to 2510
   -3.0652  -16.8845   14.6471 H   0  0  0  0  0  0  0  0  0  0  0  0  # atno 3721 bound_to 3712
   -3.9522  -22.7868   11.3956 H   0  0  0  0  0  0  0  0  0  0  0  0  # atno 3767 bound_to 3762
    1.5996  -20.2372    9.4200 H   0  0  0  0  0  0  0  0  0  0  0  0  # atno 3841 bound_to 3832
    3.3303   -9.5196    3.8710 LP  0  0  0  0  0  0  0  0  0  0  0  0  # atno 4297 bound_to 1298
    4.5468   -8.5332    4.3335 LP  0  0  0  0  0  0  0  0  0  0  0  0  # atno 4298 bound_to 1298
    2.1437   -8.3160    7.7430 LP  0  0  0  0  0  0  0  0  0  0  0  0  # atno 4299 bound_to 2456
    0.6425   -8.2065    7.1096 LP  0  0  0  0  0  0  0  0  0  0  0  0  # atno 4300 bound_to 2456
    2.1035   -8.5048    6.0919 LP  0  0  0  0  0  0  0  0  0  0  0  0  # atno 4301 bound_to 2510
    2.3935   -7.4602    4.8707 LP  0  0  0  0  0  0  0  0  0  0  0  0  # atno 4302 bound_to 2510
   -3.3749  -17.0144   13.0770 LP  0  0  0  0  0  0  0  0  0  0  0  0  # atno 4306 bound_to 3712
   -2.6139  -18.2184   13.8758 LP  0  0  0  0  0  0  0  0  0  0  0  0  # atno 4307 bound_to 3712
    2.4622  -19.7651    8.1515 LP  0  0  0  0  0  0  0  0  0  0  0  0  # atno 4314 bound_to 3832
    2.9195  -21.0631    9.0305 LP  0  0  0  0  0  0  0  0  0  0  0  0  # atno 4315 bound_to 3832
   -4.8566  -23.1433   10.0835 LP  0  0  0  0  0  0  0  0  0  0  0  0  # atno 4318 bound_to 3762
   -5.3183  -21.9450   11.0922 LP  0  0  0  0  0  0  0  0  0  0  0  0  # atno 4319 bound_to 3762
   -4.8006   -5.4632    9.3987 LP  0  0  0  0  0  0  0  0  0  0  0  0  # atno 4320 bound_to 2467
   -5.2458   -4.9741    7.9057 LP  0  0  0  0  0  0  0  0  0  0  0  0  # atno 4321 bound_to 2467

> <Gold.Score>
     Score     S(PLP)   S(hbond)     S(cho)   S(metal)  DE(clash)   DE(tors)     intcor
     44.46     -41.57       1.00       0.00       0.00       0.00       0.05       0.00

> <Gold.PLP.Fitness>
44.4564

> <Gold.PLP.PLP>
-41.5650

> <Gold.PLP.part.hbond>
-1.0000

> <Gold.PLP.part.metal>
0.0000

> <Gold.PLP.part.buried>
-5.1337

> <Gold.PLP.part.nonpolar>
-36.6480

> <Gold.PLP.part.repulsive>
0.1398

> <Gold.PLP.ligand.clash>
0.0000

> <Gold.PLP.ligand.torsion>
0.0544

> <Gold.PLP.Chemscore.Hbond>
1.0000

> <Gold.PLP.Chemscore.CHOScore>
0.0000

> <Gold.PLP.Chemscore.Metal>
0.0000

> <Gold.Chemscore.Hbonds>
donor molecule, donor type, donor heavy atom, donor atom, acceptor molecule, acceptor atom, score
      P1  H  2456  2461       L1     9  1.00

> <Gold.PLP.Chemscore.Internal.Correction>
0.0002

