#       Name:                EN300-43851_i001
#       Creating user name   fsindt
#       Creation time:       Mon Feb 27 17:50:17 2023


#       File generated by GOLD software.
#

@<TRIPOS>MOLECULE
EN300-43851_i001|acide_3|mol2|206|dock9
    23    24     1
SMALL
USER_CHARGES


@<TRIPOS>ATOM
      1 C1           2.8924 -17.0996  13.3459 C.3            1 <1>                0.0000
      2 C2           1.9915 -16.2030  12.5364 C.2            1 <1>                0.0000
      3 N3           2.3004 -15.5793  11.4241 N.2            1 <1>                0.0000
      4 N4           1.1657 -14.8631  11.0211 N.pl3          1 <1>                0.0000
      5 N5           0.2221 -15.0631  11.8735 N.2            1 <1>                0.0000
      6 C6           0.6531 -15.8762  12.8227 C.2            1 <1>                0.0000
      7 C7          -0.1270 -16.3487  13.9809 C.2            1 <1>                0.0000
      8 O8          -0.3314 -15.6006  14.9268 O.co2          1 <1>                0.0000
      9 O9          -0.5696 -17.4887  13.9961 O.co2          1 <1>               -1.0000
     10 C10          1.0731 -14.0598   9.8765 C.ar           1 <1>                0.0000
     11 C11          1.5540 -14.5252   8.6598 C.ar           1 <1>                0.0000
     12 C12          1.4619 -13.7322   7.5332 C.ar           1 <1>                0.0000
     13 C13          0.8904 -12.4733   7.6161 C.ar           1 <1>                0.0000
     14 F14          0.8009 -11.6990   6.5126 F              1 <1>                0.0000
     15 C15          0.4103 -12.0072   8.8288 C.ar           1 <1>                0.0000
     16 C16          0.4953 -12.7996   9.9565 C.ar           1 <1>                0.0000
     17 H17          3.4284 -16.5044  14.0851 H              1 <1>                0.0000
     18 H18          2.2923 -17.8549  13.8536 H              1 <1>                0.0000
     19 H19          3.6080 -17.5883  12.6847 H              1 <1>                0.0000
     20 H20          2.0000 -15.5067   8.5948 H              1 <1>                0.0000
     21 H21          1.8361 -14.0937   6.5868 H              1 <1>                0.0000
     22 H22         -0.0350 -11.0253   8.8915 H              1 <1>                0.0000
     23 H23          0.1204 -12.4360  10.9019 H              1 <1>                0.0000
@<TRIPOS>BOND
    1    1    2 1     
    2    1   17 1     
    3    1   18 1     
    4    1   19 1     
    5    2    3 2     
    6    2    6 1     
    7    3    4 1     
    8    4    5 1     
    9    4   10 1     
   10    5    6 2     
   11    6    7 1     
   12    7    8 ar    
   13    7    9 ar    
   14   10   11 ar    
   15   10   16 ar    
   16   11   12 ar    
   17   11   20 1     
   18   12   13 ar    
   19   12   21 1     
   20   13   14 1     
   21   13   15 ar    
   22   15   16 ar    
   23   15   22 1     
   24   16   23 1     
@<TRIPOS>SUBSTRUCTURE
      1 ****           1
@<TRIPOS>COMMENT
> <Gold.Version>
2022.2.0

> <Gold.Id.Protein>
3pbl|protein|mol2

> <Gold.Protein.RotatedTorsions>
[ 1303 1298 1297 1294 ] final -137.87 input  179.99 | X-H torsion
[ 2461 2456 2455 2452 ] final -130.50 input   30.03 | X-H torsion
[ 2515 2510 2509 2506 ] final  149.79 input  -89.99 | X-H torsion
[ 3721 3712 3711 3710 ] final  -13.00 input -179.91 | X-H torsion
[ 3841 3832 3831 3830 ] final  -74.01 input -179.91 | X-H torsion
[ 3767 3762 3761 3758 ] final   -8.56 input  -89.99 | X-H torsion
[ 2472 2467 2466 2463 ] final  -63.60 input  -89.97 | X-H torsion

> <Gold.Protein.ActiveResidues>
 VAL82   VAL86   LEU89   PHE106  VAL107  ASP110  VAL111  MET112  CYS114  THR115 
 CYS181  SER182  ILE183  PHE188  VAL189  ILE190  SER192  SER193  SER196  TRP342 
 PHE345  PHE346  HIS349  VAL350  TYR365  THR369  GLY372  TYR373 

> <Gold.Protein.RotatedAtoms>
    4.4679   -8.5027    4.2675 H   0  0  0  0  0  0  0  0  0  0  0  0  # atno 1303 bound_to 1298
    0.7004   -9.2338    8.1561 H   0  0  0  0  0  0  0  0  0  0  0  0  # atno 2461 bound_to 2456
   -3.7542   -5.2083    9.0085 H   0  0  0  0  0  0  0  0  0  0  0  0  # atno 2472 bound_to 2467
    2.1430   -8.6400    6.0679 H   0  0  0  0  0  0  0  0  0  0  0  0  # atno 2515 bound_to 2510
   -2.5247  -17.8645   14.4112 H   0  0  0  0  0  0  0  0  0  0  0  0  # atno 3721 bound_to 3712
   -5.3931  -22.6108   10.2081 H   0  0  0  0  0  0  0  0  0  0  0  0  # atno 3767 bound_to 3762
    1.7032  -19.7005    8.8754 H   0  0  0  0  0  0  0  0  0  0  0  0  # atno 3841 bound_to 3832
    4.5628   -9.9994    4.9136 LP  0  0  0  0  0  0  0  0  0  0  0  0  # atno 4297 bound_to 1298
    3.3314   -9.6196    3.9105 LP  0  0  0  0  0  0  0  0  0  0  0  0  # atno 4298 bound_to 1298
    2.1552   -8.5203    7.9511 LP  0  0  0  0  0  0  0  0  0  0  0  0  # atno 4299 bound_to 2456
    0.8819   -8.0543    7.0411 LP  0  0  0  0  0  0  0  0  0  0  0  0  # atno 4300 bound_to 2456
    2.3333   -7.4241    4.9949 LP  0  0  0  0  0  0  0  0  0  0  0  0  # atno 4301 bound_to 2510
    2.8206   -8.9349    4.6120 LP  0  0  0  0  0  0  0  0  0  0  0  0  # atno 4302 bound_to 2510
   -3.5056  -16.6018   14.2648 LP  0  0  0  0  0  0  0  0  0  0  0  0  # atno 4306 bound_to 3712
   -3.1072  -17.4996   12.9602 LP  0  0  0  0  0  0  0  0  0  0  0  0  # atno 4307 bound_to 3712
    3.0559  -20.3564    8.3133 LP  0  0  0  0  0  0  0  0  0  0  0  0  # atno 4314 bound_to 3832
    2.2060  -21.0918    9.4980 LP  0  0  0  0  0  0  0  0  0  0  0  0  # atno 4315 bound_to 3832
   -4.7299  -22.0169   11.5771 LP  0  0  0  0  0  0  0  0  0  0  0  0  # atno 4318 bound_to 3762
   -4.0046  -23.2474   10.7857 LP  0  0  0  0  0  0  0  0  0  0  0  0  # atno 4319 bound_to 3762
   -5.3783   -5.3728    8.9715 LP  0  0  0  0  0  0  0  0  0  0  0  0  # atno 4320 bound_to 2467
   -4.5843   -4.8125    7.6592 LP  0  0  0  0  0  0  0  0  0  0  0  0  # atno 4321 bound_to 2467

> <Gold.Score>
     Score     S(PLP)   S(hbond)     S(cho)   S(metal)  DE(clash)   DE(tors)     intcor
     45.37     -45.01       1.58       0.00       0.00       0.00       2.18       0.00

> <Gold.PLP.Fitness>
45.3701

> <Gold.PLP.PLP>
-45.0078

> <Gold.PLP.part.hbond>
-2.0000

> <Gold.PLP.part.metal>
0.0000

> <Gold.PLP.part.buried>
-4.8308

> <Gold.PLP.part.nonpolar>
-42.3622

> <Gold.PLP.part.repulsive>
3.1989

> <Gold.PLP.ligand.clash>
0.0000

> <Gold.PLP.ligand.torsion>
2.1829

> <Gold.PLP.Chemscore.Hbond>
1.5760

> <Gold.PLP.Chemscore.CHOScore>
0.0000

> <Gold.PLP.Chemscore.Metal>
0.0000

> <Gold.Chemscore.Hbonds>
donor molecule, donor type, donor heavy atom, donor atom, acceptor molecule, acceptor atom, score
      P1  H  2305  2313       L1     8  1.00
      P1  H  3712  3721       L1     9  0.58

> <Gold.PLP.Chemscore.Internal.Correction>
0.0002

