#       Name:                EN300-43851_i001
#       Creating user name   fsindt
#       Creation time:       Mon Feb 27 17:50:14 2023


#       File generated by GOLD software.
#

@<TRIPOS>MOLECULE
EN300-43851_i001|acide_3|mol2|206|dock3
    23    24     1
SMALL
USER_CHARGES


@<TRIPOS>ATOM
      1 C1           1.0565 -13.4230   6.9045 C.3            1 <1>                0.0000
      2 C2           0.7516 -13.5790   8.3720 C.2            1 <1>                0.0000
      3 N3           1.1162 -14.5729   9.1471 N.2            1 <1>                0.0000
      4 N4           0.6168 -14.3046  10.4284 N.pl3          1 <1>                0.0000
      5 N5          -0.0207 -13.1867  10.4016 N.2            1 <1>                0.0000
      6 C6           0.0256 -12.6842   9.1796 C.2            1 <1>                0.0000
      7 C7          -0.5840 -11.4163   8.7390 C.2            1 <1>                0.0000
      8 O8          -0.0990 -10.7978   7.8019 O.co2          1 <1>                0.0000
      9 O9          -1.5745 -10.9829   9.3107 O.co2          1 <1>               -1.0000
     10 C10          0.7840 -15.1206  11.5555 C.ar           1 <1>                0.0000
     11 C11          2.0292 -15.6645  11.8413 C.ar           1 <1>                0.0000
     12 C12          2.1919 -16.4683  12.9522 C.ar           1 <1>                0.0000
     13 C13          1.1142 -16.7322  13.7811 C.ar           1 <1>                0.0000
     14 F14          1.2754 -17.5185  14.8678 F              1 <1>                0.0000
     15 C15         -0.1287 -16.1906  13.4977 C.ar           1 <1>                0.0000
     16 C16         -0.2941 -15.3816  12.3908 C.ar           1 <1>                0.0000
     17 H17          0.2628 -13.8849   6.3174 H              1 <1>                0.0000
     18 H18          1.1214 -12.3633   6.6575 H              1 <1>                0.0000
     19 H19          2.0059 -13.9078   6.6771 H              1 <1>                0.0000
     20 H20          2.8698 -15.4594  11.1950 H              1 <1>                0.0000
     21 H21          3.1602 -16.8919  13.1747 H              1 <1>                0.0000
     22 H22         -0.9679 -16.3974  14.1452 H              1 <1>                0.0000
     23 H23         -1.2633 -14.9592  12.1704 H              1 <1>                0.0000
@<TRIPOS>BOND
    1    1    2 1     
    2    1   17 1     
    3    1   18 1     
    4    1   19 1     
    5    2    3 2     
    6    2    6 1     
    7    3    4 1     
    8    4    5 1     
    9    4   10 1     
   10    5    6 2     
   11    6    7 1     
   12    7    8 ar    
   13    7    9 ar    
   14   10   11 ar    
   15   10   16 ar    
   16   11   12 ar    
   17   11   20 1     
   18   12   13 ar    
   19   12   21 1     
   20   13   14 1     
   21   13   15 ar    
   22   15   16 ar    
   23   15   22 1     
   24   16   23 1     
@<TRIPOS>SUBSTRUCTURE
      1 ****           1
@<TRIPOS>COMMENT
> <Gold.Version>
2022.2.0

> <Gold.Id.Protein>
3pbl|protein|mol2

> <Gold.Protein.RotatedTorsions>
[ 1303 1298 1297 1294 ] final -105.61 input  179.99 | X-H torsion
[ 2461 2456 2455 2452 ] final -112.26 input   30.03 | X-H torsion
[ 2515 2510 2509 2506 ] final   69.26 input  -89.99 | X-H torsion
[ 3721 3712 3711 3710 ] final  -79.50 input -179.91 | X-H torsion
[ 3841 3832 3831 3830 ] final  -74.42 input -179.91 | X-H torsion
[ 3767 3762 3761 3758 ] final -160.15 input  -89.99 | X-H torsion
[ 2472 2467 2466 2463 ] final    2.43 input  -89.97 | X-H torsion

> <Gold.Protein.ActiveResidues>
 VAL82   VAL86   LEU89   PHE106  VAL107  ASP110  VAL111  MET112  CYS114  THR115 
 CYS181  SER182  ILE183  PHE188  VAL189  ILE190  SER192  SER193  SER196  TRP342 
 PHE345  PHE346  HIS349  VAL350  TYR365  THR369  GLY372  TYR373 

> <Gold.Protein.RotatedAtoms>
    4.0349   -8.5202    3.9734 H   0  0  0  0  0  0  0  0  0  0  0  0  # atno 1303 bound_to 1298
    0.4977   -9.1178    7.9694 H   0  0  0  0  0  0  0  0  0  0  0  0  # atno 2461 bound_to 2456
   -3.8209   -4.8672    8.0418 H   0  0  0  0  0  0  0  0  0  0  0  0  # atno 2472 bound_to 2467
    2.1073   -7.5234    5.5817 H   0  0  0  0  0  0  0  0  0  0  0  0  # atno 2515 bound_to 2510
   -2.9468  -17.0776   14.7352 H   0  0  0  0  0  0  0  0  0  0  0  0  # atno 3721 bound_to 3712
   -4.3062  -22.2989   11.6448 H   0  0  0  0  0  0  0  0  0  0  0  0  # atno 3767 bound_to 3762
    1.7064  -19.6978    8.8709 H   0  0  0  0  0  0  0  0  0  0  0  0  # atno 3841 bound_to 3832
    4.8449   -9.5587    4.9386 LP  0  0  0  0  0  0  0  0  0  0  0  0  # atno 4297 bound_to 1298
    3.4824  -10.0428    4.1797 LP  0  0  0  0  0  0  0  0  0  0  0  0  # atno 4298 bound_to 1298
    2.0767   -8.7376    8.1408 LP  0  0  0  0  0  0  0  0  0  0  0  0  # atno 4299 bound_to 2456
    1.1631   -7.9529    7.0380 LP  0  0  0  0  0  0  0  0  0  0  0  0  # atno 4300 bound_to 2456
    2.8020   -8.3515    4.3580 LP  0  0  0  0  0  0  0  0  0  0  0  0  # atno 4301 bound_to 2510
    2.3876   -9.1246    5.7354 LP  0  0  0  0  0  0  0  0  0  0  0  0  # atno 4302 bound_to 2510
   -3.4704  -16.8225   13.2390 LP  0  0  0  0  0  0  0  0  0  0  0  0  # atno 4306 bound_to 3712
   -2.6552  -18.1874   13.6121 LP  0  0  0  0  0  0  0  0  0  0  0  0  # atno 4307 bound_to 3712
    3.0584  -20.3619    8.3166 LP  0  0  0  0  0  0  0  0  0  0  0  0  # atno 4314 bound_to 3832
    2.1998  -21.0895    9.4998 LP  0  0  0  0  0  0  0  0  0  0  0  0  # atno 4315 bound_to 3832
   -4.3096  -23.3349   10.3824 LP  0  0  0  0  0  0  0  0  0  0  0  0  # atno 4318 bound_to 3762
   -5.5113  -22.2411   10.5442 LP  0  0  0  0  0  0  0  0  0  0  0  0  # atno 4319 bound_to 3762
   -4.4619   -5.4376    9.4311 LP  0  0  0  0  0  0  0  0  0  0  0  0  # atno 4320 bound_to 2467
   -5.4339   -5.0887    8.1662 LP  0  0  0  0  0  0  0  0  0  0  0  0  # atno 4321 bound_to 2467

> <Gold.Score>
     Score     S(PLP)   S(hbond)     S(cho)   S(metal)  DE(clash)   DE(tors)     intcor
     46.20     -45.35       1.00       0.00       0.00       0.00       1.08       0.00

> <Gold.PLP.Fitness>
46.1988

> <Gold.PLP.PLP>
-45.3517

> <Gold.PLP.part.hbond>
-1.0000

> <Gold.PLP.part.metal>
0.0000

> <Gold.PLP.part.buried>
-3.4876

> <Gold.PLP.part.nonpolar>
-41.7463

> <Gold.PLP.part.repulsive>
0.1575

> <Gold.PLP.ligand.clash>
0.0000

> <Gold.PLP.ligand.torsion>
1.0765

> <Gold.PLP.Chemscore.Hbond>
1.0000

> <Gold.PLP.Chemscore.CHOScore>
0.0000

> <Gold.PLP.Chemscore.Metal>
0.0000

> <Gold.Chemscore.Hbonds>
donor molecule, donor type, donor heavy atom, donor atom, acceptor molecule, acceptor atom, score
      P1  H  2456  2461       L1     8  1.00

> <Gold.PLP.Chemscore.Internal.Correction>
0.0002

