#       Name:                EN300-43851_i001
#       Creating user name   fsindt
#       Creation time:       Mon Feb 27 17:50:20 2023


#       File generated by GOLD software.
#

@<TRIPOS>MOLECULE
EN300-43851_i001|acide_3|mol2|206|dock13
    23    24     1
SMALL
USER_CHARGES


@<TRIPOS>ATOM
      1 C1          -0.9172 -19.3656  12.2102 C.3            1 <1>                0.0000
      2 C2          -0.4942 -17.9803  11.7940 C.2            1 <1>                0.0000
      3 N3          -0.4007 -17.5247  10.5670 N.2            1 <1>                0.0000
      4 N4           0.0262 -16.1929  10.6505 N.pl3          1 <1>                0.0000
      5 N5           0.1774 -15.8806  11.8900 N.2            1 <1>                0.0000
      6 C6          -0.1283 -16.9216  12.6455 C.2            1 <1>                0.0000
      7 C7          -0.0841 -16.9679  14.1183 C.2            1 <1>                0.0000
      8 O8          -0.5305 -17.9388  14.7133 O.co2          1 <1>                0.0000
      9 O9           0.3989 -16.0353  14.7452 O.co2          1 <1>               -1.0000
     10 C10          0.2519 -15.3398   9.5618 C.ar           1 <1>                0.0000
     11 C11          0.8641 -14.1090   9.7583 C.ar           1 <1>                0.0000
     12 C12          1.0855 -13.2698   8.6843 C.ar           1 <1>                0.0000
     13 C13          0.6975 -13.6550   7.4118 C.ar           1 <1>                0.0000
     14 F14          0.9154 -12.8327   6.3622 F              1 <1>                0.0000
     15 C15          0.0868 -14.8822   7.2137 C.ar           1 <1>                0.0000
     16 C16         -0.1312 -15.7267   8.2844 C.ar           1 <1>                0.0000
     17 H17         -0.0406 -20.0105  12.2700 H              1 <1>                0.0000
     18 H18         -1.4018 -19.3198  13.1855 H              1 <1>                0.0000
     19 H19         -1.6152 -19.7682  11.4762 H              1 <1>                0.0000
     20 H20          1.1664 -13.8081  10.7505 H              1 <1>                0.0000
     21 H21          1.5613 -12.3123   8.8367 H              1 <1>                0.0000
     22 H22         -0.2151 -15.1808   6.2207 H              1 <1>                0.0000
     23 H23         -0.6072 -16.6837   8.1295 H              1 <1>                0.0000
@<TRIPOS>BOND
    1    1    2 1     
    2    1   17 1     
    3    1   18 1     
    4    1   19 1     
    5    2    3 2     
    6    2    6 1     
    7    3    4 1     
    8    4    5 1     
    9    4   10 1     
   10    5    6 2     
   11    6    7 1     
   12    7    8 ar    
   13    7    9 ar    
   14   10   11 ar    
   15   10   16 ar    
   16   11   12 ar    
   17   11   20 1     
   18   12   13 ar    
   19   12   21 1     
   20   13   14 1     
   21   13   15 ar    
   22   15   16 ar    
   23   15   22 1     
   24   16   23 1     
@<TRIPOS>SUBSTRUCTURE
      1 ****           1
@<TRIPOS>COMMENT
> <Gold.Version>
2022.2.0

> <Gold.Id.Protein>
3pbl|protein|mol2

> <Gold.Protein.RotatedTorsions>
[ 1303 1298 1297 1294 ] final -130.67 input  179.99 | X-H torsion
[ 2461 2456 2455 2452 ] final   72.24 input   30.03 | X-H torsion
[ 2515 2510 2509 2506 ] final    9.86 input  -89.99 | X-H torsion
[ 3721 3712 3711 3710 ] final    8.52 input -179.91 | X-H torsion
[ 3841 3832 3831 3830 ] final -126.40 input -179.91 | X-H torsion
[ 3767 3762 3761 3758 ] final  106.71 input  -89.99 | X-H torsion
[ 2472 2467 2466 2463 ] final  174.51 input  -89.97 | X-H torsion

> <Gold.Protein.ActiveResidues>
 VAL82   VAL86   LEU89   PHE106  VAL107  ASP110  VAL111  MET112  CYS114  THR115 
 CYS181  SER182  ILE183  PHE188  VAL189  ILE190  SER192  SER193  SER196  TRP342 
 PHE345  PHE346  HIS349  VAL350  TYR365  THR369  GLY372  TYR373 

> <Gold.Protein.RotatedAtoms>
    4.3760   -8.4821    4.1957 H   0  0  0  0  0  0  0  0  0  0  0  0  # atno 1303 bound_to 1298
    2.0332   -8.1247    7.5134 H   0  0  0  0  0  0  0  0  0  0  0  0  # atno 2461 bound_to 2456
   -5.3937   -5.3658    8.9452 H   0  0  0  0  0  0  0  0  0  0  0  0  # atno 2472 bound_to 2467
    2.4727   -7.5368    4.7225 H   0  0  0  0  0  0  0  0  0  0  0  0  # atno 2515 bound_to 2510
   -2.4737  -17.9985   14.1214 H   0  0  0  0  0  0  0  0  0  0  0  0  # atno 3721 bound_to 3712
   -4.0380  -23.2732   10.7204 H   0  0  0  0  0  0  0  0  0  0  0  0  # atno 3767 bound_to 3762
    2.3110  -19.6130    8.4206 H   0  0  0  0  0  0  0  0  0  0  0  0  # atno 3841 bound_to 3832
    4.6416   -9.9136    4.9351 LP  0  0  0  0  0  0  0  0  0  0  0  0  # atno 4297 bound_to 1298
    3.3445   -9.7260    3.9609 LP  0  0  0  0  0  0  0  0  0  0  0  0  # atno 4298 bound_to 1298
    0.4477   -8.4156    7.2505 LP  0  0  0  0  0  0  0  0  0  0  0  0  # atno 4299 bound_to 2456
    1.2571   -9.2677    8.3842 LP  0  0  0  0  0  0  0  0  0  0  0  0  # atno 4300 bound_to 2456
    2.7598   -9.1382    4.8600 LP  0  0  0  0  0  0  0  0  0  0  0  0  # atno 4301 bound_to 2510
    2.0642   -8.3244    6.0930 LP  0  0  0  0  0  0  0  0  0  0  0  0  # atno 4302 bound_to 2510
   -3.3900  -16.7571   14.5653 LP  0  0  0  0  0  0  0  0  0  0  0  0  # atno 4306 bound_to 3712
   -3.2818  -17.1896   12.9943 LP  0  0  0  0  0  0  0  0  0  0  0  0  # atno 4307 bound_to 3712
    3.0205  -20.9745    8.8886 LP  0  0  0  0  0  0  0  0  0  0  0  0  # atno 4314 bound_to 3832
    1.5393  -20.5748    9.4479 LP  0  0  0  0  0  0  0  0  0  0  0  0  # atno 4315 bound_to 3832
   -5.4255  -22.5529   10.2484 LP  0  0  0  0  0  0  0  0  0  0  0  0  # atno 4318 bound_to 3762
   -4.6637  -22.0493   11.6022 LP  0  0  0  0  0  0  0  0  0  0  0  0  # atno 4319 bound_to 3762
   -4.5534   -4.8095    7.6604 LP  0  0  0  0  0  0  0  0  0  0  0  0  # atno 4320 bound_to 2467
   -3.7699   -5.2182    9.0336 LP  0  0  0  0  0  0  0  0  0  0  0  0  # atno 4321 bound_to 2467

> <Gold.Score>
     Score     S(PLP)   S(hbond)     S(cho)   S(metal)  DE(clash)   DE(tors)     intcor
     46.09     -40.23       2.00       0.00       0.00       0.00       0.07       0.00

> <Gold.PLP.Fitness>
46.0875

> <Gold.PLP.PLP>
-40.2322

> <Gold.PLP.part.hbond>
-2.0000

> <Gold.PLP.part.metal>
0.0000

> <Gold.PLP.part.buried>
-3.4991

> <Gold.PLP.part.nonpolar>
-35.8848

> <Gold.PLP.part.repulsive>
0.2403

> <Gold.PLP.ligand.clash>
0.0000

> <Gold.PLP.ligand.torsion>
0.0724

> <Gold.PLP.Chemscore.Hbond>
2.0000

> <Gold.PLP.Chemscore.CHOScore>
0.0000

> <Gold.PLP.Chemscore.Metal>
0.0000

> <Gold.Chemscore.Hbonds>
donor molecule, donor type, donor heavy atom, donor atom, acceptor molecule, acceptor atom, score
      P1  H  2305  2313       L1     9  1.00
      P1  H  3712  3721       L1     8  1.00

> <Gold.PLP.Chemscore.Internal.Correction>
0.0002

