#       Name:                EN300-43851_i001
#       Creating user name   fsindt
#       Creation time:       Mon Feb 27 17:50:22 2023


#       File generated by GOLD software.
#

@<TRIPOS>MOLECULE
EN300-43851_i001|acide_3|mol2|206|dock16
    23    24     1
SMALL
USER_CHARGES


@<TRIPOS>ATOM
      1 C1          -0.6910 -19.0901  11.9181 C.3            1 <1>                0.0000
      2 C2          -0.4094 -17.6181  11.7600 C.2            1 <1>                0.0000
      3 N3          -0.3637 -16.9451  10.6346 N.2            1 <1>                0.0000
      4 N4          -0.0721 -15.6137  10.9590 N.pl3          1 <1>                0.0000
      5 N5           0.0488 -15.5128  12.2365 N.2            1 <1>                0.0000
      6 C6          -0.1502 -16.6963  12.7911 C.2            1 <1>                0.0000
      7 C7          -0.0995 -16.9985  14.2331 C.2            1 <1>                0.0000
      8 O8          -0.5243 -18.0673  14.6492 O.co2          1 <1>                0.0000
      9 O9           0.3673 -16.1804  15.0133 O.co2          1 <1>               -1.0000
     10 C10          0.0655 -14.5629  10.0419 C.ar           1 <1>                0.0000
     11 C11         -0.3575 -13.2845  10.3808 C.ar           1 <1>                0.0000
     12 C12         -0.2211 -12.2506   9.4758 C.ar           1 <1>                0.0000
     13 C13          0.3372 -12.4879   8.2307 C.ar           1 <1>                0.0000
     14 F14          0.4701 -11.4750   7.3467 F              1 <1>                0.0000
     15 C15          0.7596 -13.7624   7.8907 C.ar           1 <1>                0.0000
     16 C16          0.6302 -14.7978   8.7952 C.ar           1 <1>                0.0000
     17 H17          0.2458 -19.6457  11.8774 H              1 <1>                0.0000
     18 H18         -1.1764 -19.2662  12.8781 H              1 <1>                0.0000
     19 H19         -1.3462 -19.4231  11.1132 H              1 <1>                0.0000
     20 H20         -0.7932 -13.0990  11.3515 H              1 <1>                0.0000
     21 H21         -0.5502 -11.2562   9.7389 H              1 <1>                0.0000
     22 H22          1.1946 -13.9456   6.9194 H              1 <1>                0.0000
     23 H23          0.9601 -15.7914   8.5298 H              1 <1>                0.0000
@<TRIPOS>BOND
    1    1    2 1     
    2    1   17 1     
    3    1   18 1     
    4    1   19 1     
    5    2    3 2     
    6    2    6 1     
    7    3    4 1     
    8    4    5 1     
    9    4   10 1     
   10    5    6 2     
   11    6    7 1     
   12    7    8 ar    
   13    7    9 ar    
   14   10   11 ar    
   15   10   16 ar    
   16   11   12 ar    
   17   11   20 1     
   18   12   13 ar    
   19   12   21 1     
   20   13   14 1     
   21   13   15 ar    
   22   15   16 ar    
   23   15   22 1     
   24   16   23 1     
@<TRIPOS>SUBSTRUCTURE
      1 ****           1
@<TRIPOS>COMMENT
> <Gold.Version>
2022.2.0

> <Gold.Id.Protein>
3pbl|protein|mol2

> <Gold.Protein.RotatedTorsions>
[ 1303 1298 1297 1294 ] final   -3.51 input  179.99 | X-H torsion
[ 2461 2456 2455 2452 ] final -160.95 input   30.03 | X-H torsion
[ 2515 2510 2509 2506 ] final  111.53 input  -89.99 | X-H torsion
[ 3721 3712 3711 3710 ] final  -17.92 input -179.91 | X-H torsion
[ 3841 3832 3831 3830 ] final  -13.22 input -179.91 | X-H torsion
[ 3767 3762 3761 3758 ] final  -64.54 input  -89.99 | X-H torsion
[ 2472 2467 2466 2463 ] final    0.75 input  -89.97 | X-H torsion

> <Gold.Protein.ActiveResidues>
 VAL82   VAL86   LEU89   PHE106  VAL107  ASP110  VAL111  MET112  CYS114  THR115 
 CYS181  SER182  ILE183  PHE188  VAL189  ILE190  SER192  SER193  SER196  TRP342 
 PHE345  PHE346  HIS349  VAL350  TYR365  THR369  GLY372  TYR373 

> <Gold.Protein.RotatedAtoms>
    3.3695   -9.8259    4.0177 H   0  0  0  0  0  0  0  0  0  0  0  0  # atno 1303 bound_to 1298
    1.1484   -9.2831    8.3617 H   0  0  0  0  0  0  0  0  0  0  0  0  # atno 2461 bound_to 2456
   -3.8048   -4.8732    8.0633 H   0  0  0  0  0  0  0  0  0  0  0  0  # atno 2472 bound_to 2467
    2.0310   -8.0341    6.0237 H   0  0  0  0  0  0  0  0  0  0  0  0  # atno 2515 bound_to 2510
   -2.5442  -17.8215   14.4687 H   0  0  0  0  0  0  0  0  0  0  0  0  # atno 3721 bound_to 3712
   -5.4388  -22.0280   10.8726 H   0  0  0  0  0  0  0  0  0  0  0  0  # atno 3767 bound_to 3762
    1.6397  -20.3316    9.4797 H   0  0  0  0  0  0  0  0  0  0  0  0  # atno 3841 bound_to 3832
    4.2811   -8.4755    4.1265 LP  0  0  0  0  0  0  0  0  0  0  0  0  # atno 4297 bound_to 1298
    4.7118   -9.8198    4.9475 LP  0  0  0  0  0  0  0  0  0  0  0  0  # atno 4298 bound_to 1298
    2.0828   -8.1866    7.5925 LP  0  0  0  0  0  0  0  0  0  0  0  0  # atno 4299 bound_to 2456
    0.5065   -8.3386    7.1941 LP  0  0  0  0  0  0  0  0  0  0  0  0  # atno 4300 bound_to 2456
    2.5969   -7.7248    4.5238 LP  0  0  0  0  0  0  0  0  0  0  0  0  # atno 4301 bound_to 2510
    2.6690   -9.2404    5.1274 LP  0  0  0  0  0  0  0  0  0  0  0  0  # atno 4302 bound_to 2510
   -3.5243  -16.5812   14.1875 LP  0  0  0  0  0  0  0  0  0  0  0  0  # atno 4306 bound_to 3712
   -3.0660  -17.5699   12.9712 LP  0  0  0  0  0  0  0  0  0  0  0  0  # atno 4307 bound_to 3712
    2.3446  -19.7127    8.1773 LP  0  0  0  0  0  0  0  0  0  0  0  0  # atno 4314 bound_to 3832
    2.9906  -21.0065    8.9358 LP  0  0  0  0  0  0  0  0  0  0  0  0  # atno 4315 bound_to 3832
   -4.0562  -22.5892   11.5362 LP  0  0  0  0  0  0  0  0  0  0  0  0  # atno 4318 bound_to 3762
   -4.6326  -23.2577   10.1623 LP  0  0  0  0  0  0  0  0  0  0  0  0  # atno 4319 bound_to 3762
   -4.4892   -5.4412    9.4328 LP  0  0  0  0  0  0  0  0  0  0  0  0  # atno 4320 bound_to 2467
   -5.4228   -5.0791    8.1429 LP  0  0  0  0  0  0  0  0  0  0  0  0  # atno 4321 bound_to 2467

> <Gold.Score>
     Score     S(PLP)   S(hbond)     S(cho)   S(metal)  DE(clash)   DE(tors)     intcor
     41.27     -36.42       2.00       0.00       0.00       0.00       0.57       0.00

> <Gold.PLP.Fitness>
41.2720

> <Gold.PLP.PLP>
-36.4167

> <Gold.PLP.part.hbond>
-2.0000

> <Gold.PLP.part.metal>
0.0000

> <Gold.PLP.part.buried>
-0.1460

> <Gold.PLP.part.nonpolar>
-33.8701

> <Gold.PLP.part.repulsive>
0.2430

> <Gold.PLP.ligand.clash>
0.0000

> <Gold.PLP.ligand.torsion>
0.5725

> <Gold.PLP.Chemscore.Hbond>
2.0000

> <Gold.PLP.Chemscore.CHOScore>
0.0000

> <Gold.PLP.Chemscore.Metal>
0.0000

> <Gold.Chemscore.Hbonds>
donor molecule, donor type, donor heavy atom, donor atom, acceptor molecule, acceptor atom, score
      P1  H  2305  2313       L1     9  1.00
      P1  H  3712  3721       L1     8  1.00

> <Gold.PLP.Chemscore.Internal.Correction>
0.0002

