#       Name:                EN300-43851_i001
#       Creating user name   fsindt
#       Creation time:       Mon Feb 27 17:50:20 2023


#       File generated by GOLD software.
#

@<TRIPOS>MOLECULE
EN300-43851_i001|acide_3|mol2|206|dock14
    23    24     1
SMALL
USER_CHARGES


@<TRIPOS>ATOM
      1 C1          -1.8938 -11.3105  11.1794 C.3            1 <1>                0.0000
      2 C2          -1.0290 -12.5304  10.9922 C.2            1 <1>                0.0000
      3 N3          -0.8798 -13.5228  11.8375 N.2            1 <1>                0.0000
      4 N4           0.0116 -14.4333  11.2551 N.pl3          1 <1>                0.0000
      5 N5           0.3719 -13.9853  10.1035 N.2            1 <1>                0.0000
      6 C6          -0.2290 -12.8303   9.8742 C.2            1 <1>                0.0000
      7 C7          -0.0796 -11.9990   8.6658 C.2            1 <1>                0.0000
      8 O8          -0.4642 -10.8380   8.6709 O.co2          1 <1>                0.0000
      9 O9           0.4289 -12.4705   7.6584 O.co2          1 <1>               -1.0000
     10 C10          0.4410 -15.6360  11.8324 C.ar           1 <1>                0.0000
     11 C11         -0.3408 -16.7783  11.7218 C.ar           1 <1>                0.0000
     12 C12          0.0840 -17.9623  12.2914 C.ar           1 <1>                0.0000
     13 C13          1.2889 -18.0111  12.9726 C.ar           1 <1>                0.0000
     14 F14          1.7030 -19.1704  13.5289 F              1 <1>                0.0000
     15 C15          2.0700 -16.8727  13.0841 C.ar           1 <1>                0.0000
     16 C16          1.6514 -15.6882  12.5109 C.ar           1 <1>                0.0000
     17 H17         -1.3135 -10.5244  11.6623 H              1 <1>                0.0000
     18 H18         -2.2428 -10.9600  10.2081 H              1 <1>                0.0000
     19 H19         -2.7507 -11.5649  11.8033 H              1 <1>                0.0000
     20 H20         -1.2806 -16.7407  11.1910 H              1 <1>                0.0000
     21 H21         -0.5239 -18.8508  12.2059 H              1 <1>                0.0000
     22 H22          3.0092 -16.9127  13.6158 H              1 <1>                0.0000
     23 H23          2.2610 -14.8009  12.5978 H              1 <1>                0.0000
@<TRIPOS>BOND
    1    1    2 1     
    2    1   17 1     
    3    1   18 1     
    4    1   19 1     
    5    2    3 2     
    6    2    6 1     
    7    3    4 1     
    8    4    5 1     
    9    4   10 1     
   10    5    6 2     
   11    6    7 1     
   12    7    8 ar    
   13    7    9 ar    
   14   10   11 ar    
   15   10   16 ar    
   16   11   12 ar    
   17   11   20 1     
   18   12   13 ar    
   19   12   21 1     
   20   13   14 1     
   21   13   15 ar    
   22   15   16 ar    
   23   15   22 1     
   24   16   23 1     
@<TRIPOS>SUBSTRUCTURE
      1 ****           1
@<TRIPOS>COMMENT
> <Gold.Version>
2022.2.0

> <Gold.Id.Protein>
3pbl|protein|mol2

> <Gold.Protein.RotatedTorsions>
[ 1303 1298 1297 1294 ] final   53.43 input  179.99 | X-H torsion
[ 2461 2456 2455 2452 ] final -127.51 input   30.03 | X-H torsion
[ 2515 2510 2509 2506 ] final -165.96 input  -89.99 | X-H torsion
[ 3721 3712 3711 3710 ] final  167.54 input -179.91 | X-H torsion
[ 3841 3832 3831 3830 ] final  178.61 input -179.91 | X-H torsion
[ 3767 3762 3761 3758 ] final  -35.21 input  -89.99 | X-H torsion
[ 2472 2467 2466 2463 ] final  143.40 input  -89.97 | X-H torsion

> <Gold.Protein.ActiveResidues>
 VAL82   VAL86   LEU89   PHE106  VAL107  ASP110  VAL111  MET112  CYS114  THR115 
 CYS181  SER182  ILE183  PHE188  VAL189  ILE190  SER192  SER193  SER196  TRP342 
 PHE345  PHE346  HIS349  VAL350  TYR365  THR369  GLY372  TYR373 

> <Gold.Protein.RotatedAtoms>
    3.9192  -10.2707    4.5723 H   0  0  0  0  0  0  0  0  0  0  0  0  # atno 1303 bound_to 1298
    0.6629   -9.2189    8.1281 H   0  0  0  0  0  0  0  0  0  0  0  0  # atno 2461 bound_to 2456
   -5.5093   -5.2102    8.4782 H   0  0  0  0  0  0  0  0  0  0  0  0  # atno 2472 bound_to 2467
    2.4213   -9.1613    5.6747 H   0  0  0  0  0  0  0  0  0  0  0  0  # atno 2515 bound_to 2510
   -3.2859  -16.6953   13.3843 H   0  0  0  0  0  0  0  0  0  0  0  0  # atno 3721 bound_to 3712
   -5.5083  -22.2935   10.4820 H   0  0  0  0  0  0  0  0  0  0  0  0  # atno 3767 bound_to 3762
    2.9696  -20.0660    8.4184 H   0  0  0  0  0  0  0  0  0  0  0  0  # atno 3841 bound_to 3832
    3.5589   -8.8867    3.7842 LP  0  0  0  0  0  0  0  0  0  0  0  0  # atno 4297 bound_to 1298
    4.8842   -8.9636    4.7350 LP  0  0  0  0  0  0  0  0  0  0  0  0  # atno 4298 bound_to 1298
    2.1485   -8.5559    7.9843 LP  0  0  0  0  0  0  0  0  0  0  0  0  # atno 4299 bound_to 2456
    0.9262   -8.0336    7.0358 LP  0  0  0  0  0  0  0  0  0  0  0  0  # atno 4300 bound_to 2456
    2.0883   -7.5631    5.6468 LP  0  0  0  0  0  0  0  0  0  0  0  0  # atno 4301 bound_to 2510
    2.7872   -8.2743    4.3536 LP  0  0  0  0  0  0  0  0  0  0  0  0  # atno 4302 bound_to 2510
   -2.6711  -18.1694   13.5485 LP  0  0  0  0  0  0  0  0  0  0  0  0  # atno 4306 bound_to 3712
   -3.0629  -17.2819   14.8621 LP  0  0  0  0  0  0  0  0  0  0  0  0  # atno 4307 bound_to 3712
    2.3524  -21.1340    9.4452 LP  0  0  0  0  0  0  0  0  0  0  0  0  # atno 4314 bound_to 3832
    1.4466  -19.8921    8.8940 LP  0  0  0  0  0  0  0  0  0  0  0  0  # atno 4315 bound_to 3832
   -4.3681  -22.2462   11.6501 LP  0  0  0  0  0  0  0  0  0  0  0  0  # atno 4318 bound_to 3762
   -4.2513  -23.3352   10.4388 LP  0  0  0  0  0  0  0  0  0  0  0  0  # atno 4319 bound_to 3762
   -4.0718   -4.8119    7.8140 LP  0  0  0  0  0  0  0  0  0  0  0  0  # atno 4320 bound_to 2467
   -4.1360   -5.3714    9.3468 LP  0  0  0  0  0  0  0  0  0  0  0  0  # atno 4321 bound_to 2467

> <Gold.Score>
     Score     S(PLP)   S(hbond)     S(cho)   S(metal)  DE(clash)   DE(tors)     intcor
     41.01     -41.15       1.00       0.00       0.00       0.00       1.57       0.00

> <Gold.PLP.Fitness>
41.0056

> <Gold.PLP.PLP>
-41.1491

> <Gold.PLP.part.hbond>
-1.0000

> <Gold.PLP.part.metal>
0.0000

> <Gold.PLP.part.buried>
-6.1613

> <Gold.PLP.part.nonpolar>
-35.1077

> <Gold.PLP.part.repulsive>
0.1087

> <Gold.PLP.ligand.clash>
0.0000

> <Gold.PLP.ligand.torsion>
1.5719

> <Gold.PLP.Chemscore.Hbond>
1.0000

> <Gold.PLP.Chemscore.CHOScore>
0.0000

> <Gold.PLP.Chemscore.Metal>
0.0000

> <Gold.Chemscore.Hbonds>
donor molecule, donor type, donor heavy atom, donor atom, acceptor molecule, acceptor atom, score
      P1  H  2456  2461       L1     8  1.00

> <Gold.PLP.Chemscore.Internal.Correction>
0.0002

