#       Name:                EN300-43851_i001
#       Creating user name   fsindt
#       Creation time:       Mon Feb 27 17:50:18 2023


#       File generated by GOLD software.
#

@<TRIPOS>MOLECULE
EN300-43851_i001|acide_3|mol2|206|dock10
    23    24     1
SMALL
USER_CHARGES


@<TRIPOS>ATOM
      1 C1          -0.3686 -14.4187   6.6310 C.3            1 <1>                0.0000
      2 C2           0.1130 -14.2882   8.0529 C.2            1 <1>                0.0000
      3 N3           0.1014 -15.2232   8.9735 N.2            1 <1>                0.0000
      4 N4           0.6400 -14.6638  10.1397 N.pl3          1 <1>                0.0000
      5 N5           0.9565 -13.4382   9.9064 N.2            1 <1>                0.0000
      6 C6           0.6685 -13.1418   8.6506 C.2            1 <1>                0.0000
      7 C7           0.8820 -11.8385   7.9955 C.2            1 <1>                0.0000
      8 O8           0.8474 -11.7541   6.7759 O.co2          1 <1>                0.0000
      9 O9           1.0938 -10.8417   8.6718 O.co2          1 <1>               -1.0000
     10 C10          0.8067 -15.3302  11.3613 C.ar           1 <1>                0.0000
     11 C11         -0.3040 -15.7446  12.0843 C.ar           1 <1>                0.0000
     12 C12         -0.1378 -16.4009  13.2877 C.ar           1 <1>                0.0000
     13 C13          1.1358 -16.6459  13.7738 C.ar           1 <1>                0.0000
     14 F14          1.2965 -17.2885  14.9512 F              1 <1>                0.0000
     15 C15          2.2450 -16.2333  13.0541 C.ar           1 <1>                0.0000
     16 C16          2.0828 -15.5817  11.8474 C.ar           1 <1>                0.0000
     17 H17         -1.4240 -14.1518   6.5789 H              1 <1>                0.0000
     18 H18          0.2071 -13.7513   5.9897 H              1 <1>                0.0000
     19 H19         -0.2370 -15.4476   6.2958 H              1 <1>                0.0000
     20 H20         -1.2974 -15.5534  11.7058 H              1 <1>                0.0000
     21 H21         -1.0013 -16.7231  13.8505 H              1 <1>                0.0000
     22 H22          3.2373 -16.4252  13.4347 H              1 <1>                0.0000
     23 H23          2.9480 -15.2604  11.2864 H              1 <1>                0.0000
@<TRIPOS>BOND
    1    1    2 1     
    2    1   17 1     
    3    1   18 1     
    4    1   19 1     
    5    2    3 2     
    6    2    6 1     
    7    3    4 1     
    8    4    5 1     
    9    4   10 1     
   10    5    6 2     
   11    6    7 1     
   12    7    8 ar    
   13    7    9 ar    
   14   10   11 ar    
   15   10   16 ar    
   16   11   12 ar    
   17   11   20 1     
   18   12   13 ar    
   19   12   21 1     
   20   13   14 1     
   21   13   15 ar    
   22   15   16 ar    
   23   15   22 1     
   24   16   23 1     
@<TRIPOS>SUBSTRUCTURE
      1 ****           1
@<TRIPOS>COMMENT
> <Gold.Version>
2022.2.0

> <Gold.Id.Protein>
3pbl|protein|mol2

> <Gold.Protein.RotatedTorsions>
[ 1303 1298 1297 1294 ] final    5.54 input  179.99 | X-H torsion
[ 2461 2456 2455 2452 ] final -148.88 input   30.03 | X-H torsion
[ 2515 2510 2509 2506 ] final -138.72 input  -89.99 | X-H torsion
[ 3721 3712 3711 3710 ] final -110.04 input -179.91 | X-H torsion
[ 3841 3832 3831 3830 ] final -167.53 input -179.91 | X-H torsion
[ 3767 3762 3761 3758 ] final   50.72 input  -89.99 | X-H torsion
[ 2472 2467 2466 2463 ] final    5.54 input  -89.97 | X-H torsion

> <Gold.Protein.ActiveResidues>
 VAL82   VAL86   LEU89   PHE106  VAL107  ASP110  VAL111  MET112  CYS114  THR115 
 CYS181  SER182  ILE183  PHE188  VAL189  ILE190  SER192  SER193  SER196  TRP342 
 PHE345  PHE346  HIS349  VAL350  TYR365  THR369  GLY372  TYR373 

> <Gold.Protein.RotatedAtoms>
    3.4180   -9.9423    4.0965 H   0  0  0  0  0  0  0  0  0  0  0  0  # atno 1303 bound_to 1298
    0.9601   -9.2864    8.2993 H   0  0  0  0  0  0  0  0  0  0  0  0  # atno 2461 bound_to 2456
   -3.8525   -4.8566    8.0029 H   0  0  0  0  0  0  0  0  0  0  0  0  # atno 2472 bound_to 2467
    2.6072   -9.2573    5.2831 H   0  0  0  0  0  0  0  0  0  0  0  0  # atno 2515 bound_to 2510
   -3.1606  -16.7381   14.5179 H   0  0  0  0  0  0  0  0  0  0  0  0  # atno 3721 bound_to 3712
   -4.6983  -23.2284   10.1325 H   0  0  0  0  0  0  0  0  0  0  0  0  # atno 3767 bound_to 3762
    2.8365  -19.9141    8.3649 H   0  0  0  0  0  0  0  0  0  0  0  0  # atno 3841 bound_to 3832
    4.1572   -8.4872    4.0450 LP  0  0  0  0  0  0  0  0  0  0  0  0  # atno 4297 bound_to 1298
    4.7872   -9.6916    4.9501 LP  0  0  0  0  0  0  0  0  0  0  0  0  # atno 4298 bound_to 1298
    2.1418   -8.3098    7.7362 LP  0  0  0  0  0  0  0  0  0  0  0  0  # atno 4299 bound_to 2456
    0.6357   -8.2121    7.1128 LP  0  0  0  0  0  0  0  0  0  0  0  0  # atno 4300 bound_to 2456
    2.0297   -7.8830    5.9492 LP  0  0  0  0  0  0  0  0  0  0  0  0  # atno 4301 bound_to 2510
    2.6598   -7.8584    4.4429 LP  0  0  0  0  0  0  0  0  0  0  0  0  # atno 4302 bound_to 2510
   -3.2701  -17.2112   12.9876 LP  0  0  0  0  0  0  0  0  0  0  0  0  # atno 4306 bound_to 3712
   -2.6086  -18.1907   14.1143 LP  0  0  0  0  0  0  0  0  0  0  0  0  # atno 4307 bound_to 3712
    2.5567  -21.1579    9.3400 LP  0  0  0  0  0  0  0  0  0  0  0  0  # atno 4314 bound_to 3832
    1.3961  -20.0436    9.0610 LP  0  0  0  0  0  0  0  0  0  0  0  0  # atno 4315 bound_to 3832
   -5.4091  -21.9988   10.9384 LP  0  0  0  0  0  0  0  0  0  0  0  0  # atno 4318 bound_to 3762
   -4.0199  -22.6481   11.4999 LP  0  0  0  0  0  0  0  0  0  0  0  0  # atno 4319 bound_to 3762
   -4.4115   -5.4302    9.4259 LP  0  0  0  0  0  0  0  0  0  0  0  0  # atno 4320 bound_to 2467
   -5.4528   -5.1067    8.2103 LP  0  0  0  0  0  0  0  0  0  0  0  0  # atno 4321 bound_to 2467

> <Gold.Score>
     Score     S(PLP)   S(hbond)     S(cho)   S(metal)  DE(clash)   DE(tors)     intcor
     44.89     -44.63       1.00       0.00       0.00       0.00       1.37       0.00

> <Gold.PLP.Fitness>
44.8885

> <Gold.PLP.PLP>
-44.6268

> <Gold.PLP.part.hbond>
-0.9116

> <Gold.PLP.part.metal>
0.0000

> <Gold.PLP.part.buried>
-4.2642

> <Gold.PLP.part.nonpolar>
-40.6611

> <Gold.PLP.part.repulsive>
0.1396

> <Gold.PLP.ligand.clash>
0.0000

> <Gold.PLP.ligand.torsion>
1.3692

> <Gold.PLP.Chemscore.Hbond>
1.0000

> <Gold.PLP.Chemscore.CHOScore>
0.0000

> <Gold.PLP.Chemscore.Metal>
0.0000

> <Gold.Chemscore.Hbonds>
donor molecule, donor type, donor heavy atom, donor atom, acceptor molecule, acceptor atom, score
      P1  H  2456  2461       L1     9  1.00

> <Gold.PLP.Chemscore.Internal.Correction>
0.0002

