#       Name:                EN300-43851_i001
#       Creating user name   fsindt
#       Creation time:       Mon Feb 27 17:50:19 2023


#       File generated by GOLD software.
#

@<TRIPOS>MOLECULE
EN300-43851_i001|acide_3|mol2|206|dock11
    23    24     1
SMALL
USER_CHARGES


@<TRIPOS>ATOM
      1 C1          -1.7267 -10.8110   9.4952 C.3            1 <1>                0.0000
      2 C2          -0.8581 -12.0067   9.7899 C.2            1 <1>                0.0000
      3 N3          -0.8792 -12.7423  10.8762 N.2            1 <1>                0.0000
      4 N4           0.0920 -13.7400  10.7205 N.pl3          1 <1>                0.0000
      5 N5           0.6631 -13.5910   9.5767 N.2            1 <1>                0.0000
      6 C6           0.1293 -12.5557   8.9512 C.2            1 <1>                0.0000
      7 C7           0.5085 -12.0586   7.6161 C.2            1 <1>                0.0000
      8 O8           1.0275 -12.8146   6.8067 O.co2          1 <1>                0.0000
      9 O9           0.3042 -10.8901   7.3179 O.co2          1 <1>               -1.0000
     10 C10          0.3927 -14.7378  11.6576 C.ar           1 <1>                0.0000
     11 C11         -0.6195 -15.2980  12.4256 C.ar           1 <1>                0.0000
     12 C12         -0.3212 -16.2808  13.3485 C.ar           1 <1>                0.0000
     13 C13          0.9865 -16.7080  13.5084 C.ar           1 <1>                0.0000
     14 F14          1.2764 -17.6700  14.4115 F              1 <1>                0.0000
     15 C15          1.9976 -16.1504  12.7433 C.ar           1 <1>                0.0000
     16 C16          1.7024 -15.1714  11.8153 C.ar           1 <1>                0.0000
     17 H17         -1.2346  -9.9071   9.8541 H              1 <1>                0.0000
     18 H18         -1.8872 -10.7347   8.4198 H              1 <1>                0.0000
     19 H19         -2.6867 -10.9264   9.9985 H              1 <1>                0.0000
     20 H20         -1.6394 -14.9649  12.3015 H              1 <1>                0.0000
     21 H21         -1.1081 -16.7165  13.9462 H              1 <1>                0.0000
     22 H22          3.0167 -16.4848  12.8694 H              1 <1>                0.0000
     23 H23          2.4911 -14.7371  11.2187 H              1 <1>                0.0000
@<TRIPOS>BOND
    1    1    2 1     
    2    1   17 1     
    3    1   18 1     
    4    1   19 1     
    5    2    3 2     
    6    2    6 1     
    7    3    4 1     
    8    4    5 1     
    9    4   10 1     
   10    5    6 2     
   11    6    7 1     
   12    7    8 ar    
   13    7    9 ar    
   14   10   11 ar    
   15   10   16 ar    
   16   11   12 ar    
   17   11   20 1     
   18   12   13 ar    
   19   12   21 1     
   20   13   14 1     
   21   13   15 ar    
   22   15   16 ar    
   23   15   22 1     
   24   16   23 1     
@<TRIPOS>SUBSTRUCTURE
      1 ****           1
@<TRIPOS>COMMENT
> <Gold.Version>
2022.2.0

> <Gold.Id.Protein>
3pbl|protein|mol2

> <Gold.Protein.RotatedTorsions>
[ 1303 1298 1297 1294 ] final -177.77 input  179.99 | X-H torsion
[ 2461 2456 2455 2452 ] final -130.41 input   30.03 | X-H torsion
[ 2515 2510 2509 2506 ] final  110.86 input  -89.99 | X-H torsion
[ 3721 3712 3711 3710 ] final  -68.60 input -179.91 | X-H torsion
[ 3841 3832 3831 3830 ] final  -55.39 input -179.91 | X-H torsion
[ 3767 3762 3761 3758 ] final  168.19 input  -89.99 | X-H torsion
[ 2472 2467 2466 2463 ] final -148.54 input  -89.97 | X-H torsion

> <Gold.Protein.ActiveResidues>
 VAL82   VAL86   LEU89   PHE106  VAL107  ASP110  VAL111  MET112  CYS114  THR115 
 CYS181  SER182  ILE183  PHE188  VAL189  ILE190  SER192  SER193  SER196  TRP342 
 PHE345  PHE346  HIS349  VAL350  TYR365  THR369  GLY372  TYR373 

> <Gold.Protein.RotatedAtoms>
    4.8430   -8.8462    4.6615 H   0  0  0  0  0  0  0  0  0  0  0  0  # atno 1303 bound_to 1298
    0.6994   -9.2334    8.1553 H   0  0  0  0  0  0  0  0  0  0  0  0  # atno 2461 bound_to 2456
   -4.9568   -5.4606    9.3417 H   0  0  0  0  0  0  0  0  0  0  0  0  # atno 2472 bound_to 2467
    2.0305   -8.0238    6.0196 H   0  0  0  0  0  0  0  0  0  0  0  0  # atno 2515 bound_to 2510
   -2.8642  -17.2182   14.7574 H   0  0  0  0  0  0  0  0  0  0  0  0  # atno 3721 bound_to 3712
   -4.0020  -22.6789   11.4785 H   0  0  0  0  0  0  0  0  0  0  0  0  # atno 3767 bound_to 3762
    1.5930  -19.8547    9.0816 H   0  0  0  0  0  0  0  0  0  0  0  0  # atno 3841 bound_to 3832
    4.0388  -10.2673    4.6534 LP  0  0  0  0  0  0  0  0  0  0  0  0  # atno 4297 bound_to 1298
    3.4802   -9.0080    3.7766 LP  0  0  0  0  0  0  0  0  0  0  0  0  # atno 4298 bound_to 1298
    2.1551   -8.5213    7.9521 LP  0  0  0  0  0  0  0  0  0  0  0  0  # atno 4299 bound_to 2456
    0.8832   -8.0537    7.0409 LP  0  0  0  0  0  0  0  0  0  0  0  0  # atno 4300 bound_to 2456
    2.6012   -7.7330    4.5177 LP  0  0  0  0  0  0  0  0  0  0  0  0  # atno 4301 bound_to 2510
    2.6652   -9.2424    5.1376 LP  0  0  0  0  0  0  0  0  0  0  0  0  # atno 4302 bound_to 2510
   -3.5182  -16.7172   13.3793 LP  0  0  0  0  0  0  0  0  0  0  0  0  # atno 4306 bound_to 3712
   -2.7026  -18.1304   13.4461 LP  0  0  0  0  0  0  0  0  0  0  0  0  # atno 4307 bound_to 3712
    2.9033  -20.1156    8.1922 LP  0  0  0  0  0  0  0  0  0  0  0  0  # atno 4314 bound_to 3832
    2.4858  -21.1545    9.3809 LP  0  0  0  0  0  0  0  0  0  0  0  0  # atno 4315 bound_to 3832
   -4.7341  -23.2117   10.1195 LP  0  0  0  0  0  0  0  0  0  0  0  0  # atno 4318 bound_to 3762
   -5.3911  -21.9845   10.9733 LP  0  0  0  0  0  0  0  0  0  0  0  0  # atno 4319 bound_to 3762
   -5.1208   -4.9251    7.8078 LP  0  0  0  0  0  0  0  0  0  0  0  0  # atno 4320 bound_to 2467
   -3.6394   -5.0079    8.4898 LP  0  0  0  0  0  0  0  0  0  0  0  0  # atno 4321 bound_to 2467

> <Gold.Score>
     Score     S(PLP)   S(hbond)     S(cho)   S(metal)  DE(clash)   DE(tors)     intcor
     43.84     -43.02       0.78       0.00       0.00       0.00       0.76       0.00

> <Gold.PLP.Fitness>
43.8418

> <Gold.PLP.PLP>
-43.0185

> <Gold.PLP.part.hbond>
-1.0000

> <Gold.PLP.part.metal>
0.0000

> <Gold.PLP.part.buried>
-6.0215

> <Gold.PLP.part.nonpolar>
-36.9665

> <Gold.PLP.part.repulsive>
0.1448

> <Gold.PLP.ligand.clash>
0.0000

> <Gold.PLP.ligand.torsion>
0.7644

> <Gold.PLP.Chemscore.Hbond>
0.7840

> <Gold.PLP.Chemscore.CHOScore>
0.0000

> <Gold.PLP.Chemscore.Metal>
0.0000

> <Gold.Chemscore.Hbonds>
donor molecule, donor type, donor heavy atom, donor atom, acceptor molecule, acceptor atom, score
      P1  H  2456  2461       L1     9  0.78

> <Gold.PLP.Chemscore.Internal.Correction>
0.0002

