#       Name:                EN300-43851_i001
#       Creating user name   fsindt
#       Creation time:       Mon Feb 27 17:50:21 2023


#       File generated by GOLD software.
#

@<TRIPOS>MOLECULE
EN300-43851_i001|acide_3|mol2|206|dock15
    23    24     1
SMALL
USER_CHARGES


@<TRIPOS>ATOM
      1 C1           2.9445 -17.4321  13.1906 C.3            1 <1>                0.0000
      2 C2           1.7582 -16.5527  12.8902 C.2            1 <1>                0.0000
      3 N3           1.6952 -15.6028  11.9873 N.2            1 <1>                0.0000
      4 N4           0.4093 -15.0505  12.0553 N.pl3          1 <1>                0.0000
      5 N5          -0.2584 -15.6605  12.9711 N.2            1 <1>                0.0000
      6 C6           0.5001 -16.5944  13.5191 C.2            1 <1>                0.0000
      7 C7           0.1018 -17.5102  14.6035 C.2            1 <1>                0.0000
      8 O8           0.9165 -18.2918  15.0741 O.co2          1 <1>                0.0000
      9 O9          -1.0433 -17.4884  15.0325 O.co2          1 <1>               -1.0000
     10 C10         -0.0714 -14.0043  11.2562 C.ar           1 <1>                0.0000
     11 C11          0.4961 -13.7625  10.0122 C.ar           1 <1>                0.0000
     12 C12          0.0212 -12.7311   9.2264 C.ar           1 <1>                0.0000
     13 C13         -1.0206 -11.9381   9.6783 C.ar           1 <1>                0.0000
     14 F14         -1.4842 -10.9298   8.9080 F              1 <1>                0.0000
     15 C15         -1.5880 -12.1778  10.9189 C.ar           1 <1>                0.0000
     16 C16         -1.1195 -13.2118  11.7052 C.ar           1 <1>                0.0000
     17 H17          3.5600 -16.9624  13.9578 H              1 <1>                0.0000
     18 H18          2.5971 -18.4019  13.5469 H              1 <1>                0.0000
     19 H19          3.5347 -17.5681  12.2843 H              1 <1>                0.0000
     20 H20          1.3087 -14.3803   9.6595 H              1 <1>                0.0000
     21 H21          0.4624 -12.5424   8.2590 H              1 <1>                0.0000
     22 H22         -2.4002 -11.5584  11.2696 H              1 <1>                0.0000
     23 H23         -1.5625 -13.3986  12.6724 H              1 <1>                0.0000
@<TRIPOS>BOND
    1    1    2 1     
    2    1   17 1     
    3    1   18 1     
    4    1   19 1     
    5    2    3 2     
    6    2    6 1     
    7    3    4 1     
    8    4    5 1     
    9    4   10 1     
   10    5    6 2     
   11    6    7 1     
   12    7    8 ar    
   13    7    9 ar    
   14   10   11 ar    
   15   10   16 ar    
   16   11   12 ar    
   17   11   20 1     
   18   12   13 ar    
   19   12   21 1     
   20   13   14 1     
   21   13   15 ar    
   22   15   16 ar    
   23   15   22 1     
   24   16   23 1     
@<TRIPOS>SUBSTRUCTURE
      1 ****           1
@<TRIPOS>COMMENT
> <Gold.Version>
2022.2.0

> <Gold.Id.Protein>
3pbl|protein|mol2

> <Gold.Protein.RotatedTorsions>
[ 1303 1298 1297 1294 ] final   11.85 input  179.99 | X-H torsion
[ 2461 2456 2455 2452 ] final -161.47 input   30.03 | X-H torsion
[ 2515 2510 2509 2506 ] final  132.90 input  -89.99 | X-H torsion
[ 3721 3712 3711 3710 ] final  -21.60 input -179.91 | X-H torsion
[ 3841 3832 3831 3830 ] final   36.98 input -179.91 | X-H torsion
[ 3767 3762 3761 3758 ] final  -44.67 input  -89.99 | X-H torsion
[ 2472 2467 2466 2463 ] final   15.06 input  -89.97 | X-H torsion

> <Gold.Protein.ActiveResidues>
 VAL82   VAL86   LEU89   PHE106  VAL107  ASP110  VAL111  MET112  CYS114  THR115 
 CYS181  SER182  ILE183  PHE188  VAL189  ILE190  SER192  SER193  SER196  TRP342 
 PHE345  PHE346  HIS349  VAL350  TYR365  THR369  GLY372  TYR373 

> <Gold.Protein.RotatedAtoms>
    3.4622  -10.0153    4.1556 H   0  0  0  0  0  0  0  0  0  0  0  0  # atno 1303 bound_to 1298
    1.1566   -9.2823    8.3638 H   0  0  0  0  0  0  0  0  0  0  0  0  # atno 2461 bound_to 2456
   -3.9618   -4.8295    7.8943 H   0  0  0  0  0  0  0  0  0  0  0  0  # atno 2472 bound_to 2467
    2.0737   -8.3734    6.0958 H   0  0  0  0  0  0  0  0  0  0  0  0  # atno 2515 bound_to 2510
   -2.5606  -17.7867   14.5089 H   0  0  0  0  0  0  0  0  0  0  0  0  # atno 3721 bound_to 3712
   -5.5085  -22.1947   10.6020 H   0  0  0  0  0  0  0  0  0  0  0  0  # atno 3767 bound_to 3762
    2.1573  -20.8358    9.6106 H   0  0  0  0  0  0  0  0  0  0  0  0  # atno 3841 bound_to 3832
    4.0701   -8.5085    3.9927 LP  0  0  0  0  0  0  0  0  0  0  0  0  # atno 4297 bound_to 1298
    4.8301   -9.5973    4.9433 LP  0  0  0  0  0  0  0  0  0  0  0  0  # atno 4298 bound_to 1298
    2.0794   -8.1817    7.5864 LP  0  0  0  0  0  0  0  0  0  0  0  0  # atno 4299 bound_to 2456
    0.5017   -8.3444    7.1982 LP  0  0  0  0  0  0  0  0  0  0  0  0  # atno 4300 bound_to 2456
    2.4513   -7.5128    4.7606 LP  0  0  0  0  0  0  0  0  0  0  0  0  # atno 4301 bound_to 2510
    2.7719   -9.1130    4.8185 LP  0  0  0  0  0  0  0  0  0  0  0  0  # atno 4302 bound_to 2510
   -3.5362  -16.5697   14.1283 LP  0  0  0  0  0  0  0  0  0  0  0  0  # atno 4306 bound_to 3712
   -3.0353  -17.6215   12.9840 LP  0  0  0  0  0  0  0  0  0  0  0  0  # atno 4307 bound_to 3712
    1.6492  -19.7001    8.5966 LP  0  0  0  0  0  0  0  0  0  0  0  0  # atno 4314 bound_to 3832
    3.0881  -20.4368    8.3653 LP  0  0  0  0  0  0  0  0  0  0  0  0  # atno 4315 bound_to 3832
   -4.2534  -22.3501   11.6352 LP  0  0  0  0  0  0  0  0  0  0  0  0  # atno 4318 bound_to 3762
   -4.3658  -23.3301   10.3338 LP  0  0  0  0  0  0  0  0  0  0  0  0  # atno 4319 bound_to 3762
   -4.2609   -5.4021    9.3940 LP  0  0  0  0  0  0  0  0  0  0  0  0  # atno 4320 bound_to 2467
   -5.4940   -5.1618    8.3507 LP  0  0  0  0  0  0  0  0  0  0  0  0  # atno 4321 bound_to 2467

> <Gold.Score>
     Score     S(PLP)   S(hbond)     S(cho)   S(metal)  DE(clash)   DE(tors)     intcor
     45.21     -42.75       0.99       0.00       0.00       0.00       0.26       0.00

> <Gold.PLP.Fitness>
45.2139

> <Gold.PLP.PLP>
-42.7545

> <Gold.PLP.part.hbond>
-0.8131

> <Gold.PLP.part.metal>
0.0000

> <Gold.PLP.part.buried>
-5.3434

> <Gold.PLP.part.nonpolar>
-37.9604

> <Gold.PLP.part.repulsive>
0.2691

> <Gold.PLP.ligand.clash>
0.0000

> <Gold.PLP.ligand.torsion>
0.2584

> <Gold.PLP.Chemscore.Hbond>
0.9920

> <Gold.PLP.Chemscore.CHOScore>
0.0000

> <Gold.PLP.Chemscore.Metal>
0.0000

> <Gold.Chemscore.Hbonds>
donor molecule, donor type, donor heavy atom, donor atom, acceptor molecule, acceptor atom, score
      P1  H  3712  3721       L1     9  0.99

> <Gold.PLP.Chemscore.Internal.Correction>
0.0002

