#       Name:                EN300-43851_i001
#       Creating user name   fsindt
#       Creation time:       Mon Feb 27 17:50:17 2023


#       File generated by GOLD software.
#

@<TRIPOS>MOLECULE
EN300-43851_i001|acide_3|mol2|206|dock7
    23    24     1
SMALL
USER_CHARGES


@<TRIPOS>ATOM
      1 C1           0.5528 -12.6866   7.9570 C.3            1 <1>                0.0000
      2 C2           0.2617 -13.2089   9.3402 C.2            1 <1>                0.0000
      3 N3           0.8567 -14.2126   9.9405 N.2            1 <1>                0.0000
      4 N4           0.2703 -14.3456  11.2060 N.pl3          1 <1>                0.0000
      5 N5          -0.6403 -13.4459  11.3401 N.2            1 <1>                0.0000
      6 C6          -0.6970 -12.7116  10.2422 C.2            1 <1>                0.0000
      7 C7          -1.6096 -11.5791  10.0017 C.2            1 <1>                0.0000
      8 O8          -2.5004 -11.3309  10.8023 O.co2          1 <1>                0.0000
      9 O9          -1.4761 -10.8879   9.0016 O.co2          1 <1>               -1.0000
     10 C10          0.6185 -15.3026  12.1688 C.ar           1 <1>                0.0000
     11 C11          1.9276 -15.7575  12.2551 C.ar           1 <1>                0.0000
     12 C12          2.2687 -16.7005  13.2043 C.ar           1 <1>                0.0000
     13 C13          1.3061 -17.1927  14.0700 C.ar           1 <1>                0.0000
     14 F14          1.6418 -18.1150  14.9984 F              1 <1>                0.0000
     15 C15         -0.0002 -16.7403  13.9855 C.ar           1 <1>                0.0000
     16 C16         -0.3440 -15.7931  13.0413 C.ar           1 <1>                0.0000
     17 H17         -0.0738 -13.2069   7.2328 H              1 <1>                0.0000
     18 H18          0.3404 -11.6181   7.9199 H              1 <1>                0.0000
     19 H19          1.6026 -12.8567   7.7178 H              1 <1>                0.0000
     20 H20          2.6785 -15.3743  11.5800 H              1 <1>                0.0000
     21 H21          3.2867 -17.0548  13.2716 H              1 <1>                0.0000
     22 H22         -0.7495 -17.1252  14.6614 H              1 <1>                0.0000
     23 H23         -1.3627 -15.4402  12.9760 H              1 <1>                0.0000
@<TRIPOS>BOND
    1    1    2 1     
    2    1   17 1     
    3    1   18 1     
    4    1   19 1     
    5    2    3 2     
    6    2    6 1     
    7    3    4 1     
    8    4    5 1     
    9    4   10 1     
   10    5    6 2     
   11    6    7 1     
   12    7    8 ar    
   13    7    9 ar    
   14   10   11 ar    
   15   10   16 ar    
   16   11   12 ar    
   17   11   20 1     
   18   12   13 ar    
   19   12   21 1     
   20   13   14 1     
   21   13   15 ar    
   22   15   16 ar    
   23   15   22 1     
   24   16   23 1     
@<TRIPOS>SUBSTRUCTURE
      1 ****           1
@<TRIPOS>COMMENT
> <Gold.Version>
2022.2.0

> <Gold.Id.Protein>
3pbl|protein|mol2

> <Gold.Protein.RotatedTorsions>
[ 1303 1298 1297 1294 ] final  -26.81 input  179.99 | X-H torsion
[ 2461 2456 2455 2452 ] final -121.19 input   30.03 | X-H torsion
[ 2515 2510 2509 2506 ] final   87.87 input  -89.99 | X-H torsion
[ 3721 3712 3711 3710 ] final  -31.91 input -179.91 | X-H torsion
[ 3841 3832 3831 3830 ] final   24.57 input -179.91 | X-H torsion
[ 3767 3762 3761 3758 ] final   -8.00 input  -89.99 | X-H torsion
[ 2472 2467 2466 2463 ] final   76.45 input  -89.97 | X-H torsion

> <Gold.Protein.ActiveResidues>
 VAL82   VAL86   LEU89   PHE106  VAL107  ASP110  VAL111  MET112  CYS114  THR115 
 CYS181  SER182  ILE183  PHE188  VAL189  ILE190  SER192  SER193  SER196  TRP342 
 PHE345  PHE346  HIS349  VAL350  TYR365  THR369  GLY372  TYR373 

> <Gold.Protein.RotatedAtoms>
    3.3324   -9.4820    3.8585 H   0  0  0  0  0  0  0  0  0  0  0  0  # atno 1303 bound_to 1298
    0.5887   -9.1819    8.0653 H   0  0  0  0  0  0  0  0  0  0  0  0  # atno 2461 bound_to 2456
   -4.9049   -4.8652    7.7052 H   0  0  0  0  0  0  0  0  0  0  0  0  # atno 2472 bound_to 2467
    2.0480   -7.7082    5.8168 H   0  0  0  0  0  0  0  0  0  0  0  0  # atno 2515 bound_to 2510
   -2.6137  -17.6787   14.6076 H   0  0  0  0  0  0  0  0  0  0  0  0  # atno 3721 bound_to 3712
   -5.3890  -22.6178   10.2036 H   0  0  0  0  0  0  0  0  0  0  0  0  # atno 3767 bound_to 3762
    1.9979  -20.7386    9.6223 H   0  0  0  0  0  0  0  0  0  0  0  0  # atno 3841 bound_to 3832
    4.5746   -8.5474    4.3583 LP  0  0  0  0  0  0  0  0  0  0  0  0  # atno 4297 bound_to 1298
    4.4555  -10.0919    4.8749 LP  0  0  0  0  0  0  0  0  0  0  0  0  # atno 4298 bound_to 1298
    2.1263   -8.6315    8.0521 LP  0  0  0  0  0  0  0  0  0  0  0  0  # atno 4299 bound_to 2456
    1.0226   -7.9949    7.0308 LP  0  0  0  0  0  0  0  0  0  0  0  0  # atno 4300 bound_to 2456
    2.7310   -8.0555    4.3750 LP  0  0  0  0  0  0  0  0  0  0  0  0  # atno 4301 bound_to 2510
    2.5179   -9.2358    5.4832 LP  0  0  0  0  0  0  0  0  0  0  0  0  # atno 4302 bound_to 2510
   -3.5595  -16.5554   13.9583 LP  0  0  0  0  0  0  0  0  0  0  0  0  # atno 4306 bound_to 3712
   -2.9506  -17.7606   13.0400 LP  0  0  0  0  0  0  0  0  0  0  0  0  # atno 4307 bound_to 3712
    1.7966  -19.6498    8.4604 LP  0  0  0  0  0  0  0  0  0  0  0  0  # atno 4314 bound_to 3832
    3.1249  -20.5993    8.4880 LP  0  0  0  0  0  0  0  0  0  0  0  0  # atno 4315 bound_to 3832
   -4.7378  -22.0133   11.5738 LP  0  0  0  0  0  0  0  0  0  0  0  0  # atno 4318 bound_to 3762
   -4.0009  -23.2440   10.7934 LP  0  0  0  0  0  0  0  0  0  0  0  0  # atno 4319 bound_to 3762
   -3.6467   -5.0920    8.7211 LP  0  0  0  0  0  0  0  0  0  0  0  0  # atno 4320 bound_to 2467
   -5.1654   -5.4363    9.2127 LP  0  0  0  0  0  0  0  0  0  0  0  0  # atno 4321 bound_to 2467

> <Gold.Score>
     Score     S(PLP)   S(hbond)     S(cho)   S(metal)  DE(clash)   DE(tors)     intcor
     43.50     -44.38       0.00       0.00       0.00       0.00       0.44       0.00

> <Gold.PLP.Fitness>
43.4982

> <Gold.PLP.PLP>
-44.3811

> <Gold.PLP.part.hbond>
0.0000

> <Gold.PLP.part.metal>
0.0000

> <Gold.PLP.part.buried>
-5.1228

> <Gold.PLP.part.nonpolar>
-40.0920

> <Gold.PLP.part.repulsive>
0.1583

> <Gold.PLP.ligand.clash>
0.0000

> <Gold.PLP.ligand.torsion>
0.4415

> <Gold.PLP.Chemscore.Hbond>
0.0000

> <Gold.PLP.Chemscore.CHOScore>
0.0000

> <Gold.PLP.Chemscore.Metal>
0.0000

> <Gold.PLP.Chemscore.Internal.Correction>
0.0002

