#       Name:                EN300-43851_i001
#       Creating user name   fsindt
#       Creation time:       Mon Feb 27 17:50:14 2023


#       File generated by GOLD software.
#

@<TRIPOS>MOLECULE
EN300-43851_i001|acide_3|mol2|206|dock2
    23    24     1
SMALL
USER_CHARGES


@<TRIPOS>ATOM
      1 C1          -0.6495 -18.6528  11.5675 C.3            1 <1>                0.0000
      2 C2          -0.2922 -17.2213  11.2607 C.2            1 <1>                0.0000
      3 N3          -0.1119 -16.6958  10.0720 N.2            1 <1>                0.0000
      4 N4           0.2038 -15.3438  10.2597 N.pl3          1 <1>                0.0000
      5 N5           0.2077 -15.0879  11.5212 N.2            1 <1>                0.0000
      6 C6          -0.0927 -16.1863  12.1928 C.2            1 <1>                0.0000
      7 C7          -0.1913 -16.3075  13.6588 C.2            1 <1>                0.0000
      8 O8          -0.6634 -17.3192  14.1583 O.co2          1 <1>                0.0000
      9 O9           0.1989 -15.3964  14.3753 O.co2          1 <1>               -1.0000
     10 C10          0.4719 -14.4204   9.2401 C.ar           1 <1>                0.0000
     11 C11          0.4865 -14.8335   7.9144 C.ar           1 <1>                0.0000
     12 C12          0.7509 -13.9223   6.9112 C.ar           1 <1>                0.0000
     13 C13          1.0014 -12.5971   7.2264 C.ar           1 <1>                0.0000
     14 F14          1.2596 -11.7070   6.2435 F              1 <1>                0.0000
     15 C15          0.9873 -12.1832   8.5481 C.ar           1 <1>                0.0000
     16 C16          0.7177 -13.0902   9.5538 C.ar           1 <1>                0.0000
     17 H17          0.2626 -19.2373  11.6874 H              1 <1>                0.0000
     18 H18         -1.2305 -18.6928  12.4890 H              1 <1>                0.0000
     19 H19         -1.2393 -19.0637  10.7481 H              1 <1>                0.0000
     20 H20          0.2916 -15.8669   7.6682 H              1 <1>                0.0000
     21 H21          0.7628 -14.2432   5.8801 H              1 <1>                0.0000
     22 H22          1.1829 -11.1494   8.7919 H              1 <1>                0.0000
     23 H23          0.7064 -12.7670  10.5842 H              1 <1>                0.0000
@<TRIPOS>BOND
    1    1    2 1     
    2    1   17 1     
    3    1   18 1     
    4    1   19 1     
    5    2    3 2     
    6    2    6 1     
    7    3    4 1     
    8    4    5 1     
    9    4   10 1     
   10    5    6 2     
   11    6    7 1     
   12    7    8 ar    
   13    7    9 ar    
   14   10   11 ar    
   15   10   16 ar    
   16   11   12 ar    
   17   11   20 1     
   18   12   13 ar    
   19   12   21 1     
   20   13   14 1     
   21   13   15 ar    
   22   15   16 ar    
   23   15   22 1     
   24   16   23 1     
@<TRIPOS>SUBSTRUCTURE
      1 ****           1
@<TRIPOS>COMMENT
> <Gold.Version>
2022.2.0

> <Gold.Id.Protein>
3pbl|protein|mol2

> <Gold.Protein.RotatedTorsions>
[ 1303 1298 1297 1294 ] final  137.04 input  179.99 | X-H torsion
[ 2461 2456 2455 2452 ] final -149.60 input   30.03 | X-H torsion
[ 2515 2510 2509 2506 ] final   38.55 input  -89.99 | X-H torsion
[ 3721 3712 3711 3710 ] final   -3.44 input -179.91 | X-H torsion
[ 3841 3832 3831 3830 ] final  -30.71 input -179.91 | X-H torsion
[ 3767 3762 3761 3758 ] final    5.27 input  -89.99 | X-H torsion
[ 2472 2467 2466 2463 ] final -168.81 input  -89.97 | X-H torsion

> <Gold.Protein.ActiveResidues>
 VAL82   VAL86   LEU89   PHE106  VAL107  ASP110  VAL111  MET112  CYS114  THR115 
 CYS181  SER182  ILE183  PHE188  VAL189  ILE190  SER192  SER193  SER196  TRP342 
 PHE345  PHE346  HIS349  VAL350  TYR365  THR369  GLY372  TYR373 

> <Gold.Protein.RotatedAtoms>
    4.8585   -9.5175    4.9327 H   0  0  0  0  0  0  0  0  0  0  0  0  # atno 1303 bound_to 1298
    0.9712   -9.2871    8.3039 H   0  0  0  0  0  0  0  0  0  0  0  0  # atno 2461 bound_to 2456
   -5.2293   -5.4237    9.1560 H   0  0  0  0  0  0  0  0  0  0  0  0  # atno 2472 bound_to 2467
    2.2750   -7.4091    5.1258 H   0  0  0  0  0  0  0  0  0  0  0  0  # atno 2515 bound_to 2510
   -2.4949  -17.9355   14.2891 H   0  0  0  0  0  0  0  0  0  0  0  0  # atno 3721 bound_to 3712
   -5.2731  -22.7810   10.1176 H   0  0  0  0  0  0  0  0  0  0  0  0  # atno 3767 bound_to 3762
    1.5695  -20.1225    9.3359 H   0  0  0  0  0  0  0  0  0  0  0  0  # atno 3841 bound_to 3832
    3.5047  -10.0698    4.2056 LP  0  0  0  0  0  0  0  0  0  0  0  0  # atno 4297 bound_to 1298
    3.9987   -8.5340    3.9530 LP  0  0  0  0  0  0  0  0  0  0  0  0  # atno 4298 bound_to 1298
    2.1394   -8.3020    7.7275 LP  0  0  0  0  0  0  0  0  0  0  0  0  # atno 4299 bound_to 2456
    0.6271   -8.2193    7.1170 LP  0  0  0  0  0  0  0  0  0  0  0  0  # atno 4300 bound_to 2456
    2.8328   -8.8211    4.5249 LP  0  0  0  0  0  0  0  0  0  0  0  0  # atno 4301 bound_to 2510
    2.1889   -8.7694    6.0247 LP  0  0  0  0  0  0  0  0  0  0  0  0  # atno 4302 bound_to 2510
   -3.4606  -16.6583   14.4071 LP  0  0  0  0  0  0  0  0  0  0  0  0  # atno 4306 bound_to 3712
   -3.1866  -17.3612   12.9589 LP  0  0  0  0  0  0  0  0  0  0  0  0  # atno 4307 bound_to 3712
    2.6007  -19.8455    8.1376 LP  0  0  0  0  0  0  0  0  0  0  0  0  # atno 4314 bound_to 3832
    2.8156  -21.1153    9.1416 LP  0  0  0  0  0  0  0  0  0  0  0  0  # atno 4315 bound_to 3832
   -4.9210  -21.9467   11.4766 LP  0  0  0  0  0  0  0  0  0  0  0  0  # atno 4318 bound_to 3762
   -3.9334  -23.1473   10.9766 LP  0  0  0  0  0  0  0  0  0  0  0  0  # atno 4319 bound_to 3762
   -4.8233   -4.8474    7.6831 LP  0  0  0  0  0  0  0  0  0  0  0  0  # atno 4320 bound_to 2467
   -3.6644   -5.1225    8.8001 LP  0  0  0  0  0  0  0  0  0  0  0  0  # atno 4321 bound_to 2467

> <Gold.Score>
     Score     S(PLP)   S(hbond)     S(cho)   S(metal)  DE(clash)   DE(tors)     intcor
     49.53     -44.82       1.61       0.00       0.00       0.00       0.06       0.00

> <Gold.PLP.Fitness>
49.5319

> <Gold.PLP.PLP>
-44.8209

> <Gold.PLP.part.hbond>
-2.0000

> <Gold.PLP.part.metal>
0.0000

> <Gold.PLP.part.buried>
-4.9068

> <Gold.PLP.part.nonpolar>
-40.7856

> <Gold.PLP.part.repulsive>
1.6402

> <Gold.PLP.ligand.clash>
0.0000

> <Gold.PLP.ligand.torsion>
0.0566

> <Gold.PLP.Chemscore.Hbond>
1.6080

> <Gold.PLP.Chemscore.CHOScore>
0.0000

> <Gold.PLP.Chemscore.Metal>
0.0000

> <Gold.Chemscore.Hbonds>
donor molecule, donor type, donor heavy atom, donor atom, acceptor molecule, acceptor atom, score
      P1  H  2305  2313       L1     9  1.00
      P1  H  3712  3721       L1     8  0.61

> <Gold.PLP.Chemscore.Internal.Correction>
0.0002

