#       Name:                EN300-43851_i001
#       Creating user name   fsindt
#       Creation time:       Mon Feb 27 17:50:19 2023


#       File generated by GOLD software.
#

@<TRIPOS>MOLECULE
EN300-43851_i001|acide_3|mol2|206|dock12
    23    24     1
SMALL
USER_CHARGES


@<TRIPOS>ATOM
      1 C1          -0.1545 -16.5801  14.7002 C.3            1 <1>                0.0000
      2 C2          -0.0923 -16.3980  13.2056 C.2            1 <1>                0.0000
      3 N3           0.1184 -15.2748  12.5608 N.2            1 <1>                0.0000
      4 N4           0.0938 -15.5716  11.1917 N.pl3          1 <1>                0.0000
      5 N5          -0.1249 -16.8312  11.0421 N.2            1 <1>                0.0000
      6 C6          -0.2427 -17.4003  12.2295 C.2            1 <1>                0.0000
      7 C7          -0.4968 -18.8298  12.4854 C.2            1 <1>                0.0000
      8 O8          -0.9774 -19.1840  13.5529 O.co2          1 <1>                0.0000
      9 O9          -0.2269 -19.6614  11.6302 O.co2          1 <1>               -1.0000
     10 C10          0.2772 -14.6474  10.1542 C.ar           1 <1>                0.0000
     11 C11          0.7894 -15.0657   8.9332 C.ar           1 <1>                0.0000
     12 C12          0.9695 -14.1537   7.9122 C.ar           1 <1>                0.0000
     13 C13          0.6398 -12.8224   8.1054 C.ar           1 <1>                0.0000
     14 F14          0.8164 -11.9316   7.1052 F              1 <1>                0.0000
     15 C15          0.1289 -12.4032   9.3226 C.ar           1 <1>                0.0000
     16 C16         -0.0581 -13.3134  10.3442 C.ar           1 <1>                0.0000
     17 H17         -1.1814 -16.4464  15.0401 H              1 <1>                0.0000
     18 H18          0.1861 -17.5828  14.9586 H              1 <1>                0.0000
     19 H19          0.4870 -15.8429  15.1831 H              1 <1>                0.0000
     20 H20          1.0470 -16.1036   8.7822 H              1 <1>                0.0000
     21 H21          1.3681 -14.4785   6.9625 H              1 <1>                0.0000
     22 H22         -0.1276 -11.3648   9.4714 H              1 <1>                0.0000
     23 H23         -0.4568 -12.9862  11.2931 H              1 <1>                0.0000
@<TRIPOS>BOND
    1    1    2 1     
    2    1   17 1     
    3    1   18 1     
    4    1   19 1     
    5    2    3 2     
    6    2    6 1     
    7    3    4 1     
    8    4    5 1     
    9    4   10 1     
   10    5    6 2     
   11    6    7 1     
   12    7    8 ar    
   13    7    9 ar    
   14   10   11 ar    
   15   10   16 ar    
   16   11   12 ar    
   17   11   20 1     
   18   12   13 ar    
   19   12   21 1     
   20   13   14 1     
   21   13   15 ar    
   22   15   16 ar    
   23   15   22 1     
   24   16   23 1     
@<TRIPOS>SUBSTRUCTURE
      1 ****           1
@<TRIPOS>COMMENT
> <Gold.Version>
2022.2.0

> <Gold.Id.Protein>
3pbl|protein|mol2

> <Gold.Protein.RotatedTorsions>
[ 1303 1298 1297 1294 ] final   31.79 input  179.99 | X-H torsion
[ 2461 2456 2455 2452 ] final  132.89 input   30.03 | X-H torsion
[ 2515 2510 2509 2506 ] final -141.46 input  -89.99 | X-H torsion
[ 3721 3712 3711 3710 ] final   23.15 input -179.91 | X-H torsion
[ 3841 3832 3831 3830 ] final  156.85 input -179.91 | X-H torsion
[ 3767 3762 3761 3758 ] final  102.10 input  -89.99 | X-H torsion
[ 2472 2467 2466 2463 ] final   39.71 input  -89.97 | X-H torsion

> <Gold.Protein.ActiveResidues>
 VAL82   VAL86   LEU89   PHE106  VAL107  ASP110  VAL111  MET112  CYS114  THR115 
 CYS181  SER182  ILE183  PHE188  VAL189  ILE190  SER192  SER193  SER196  TRP342 
 PHE345  PHE346  HIS349  VAL350  TYR365  THR369  GLY372  TYR373 

> <Gold.Protein.RotatedAtoms>
    3.6513  -10.1911    4.3553 H   0  0  0  0  0  0  0  0  0  0  0  0  # atno 1303 bound_to 1298
    2.0392   -8.7974    8.1875 H   0  0  0  0  0  0  0  0  0  0  0  0  # atno 2461 bound_to 2456
   -4.3144   -4.7992    7.7025 H   0  0  0  0  0  0  0  0  0  0  0  0  # atno 2472 bound_to 2467
    2.5896   -9.2569    5.3246 H   0  0  0  0  0  0  0  0  0  0  0  0  # atno 2515 bound_to 2510
   -2.4732  -18.0333   13.9035 H   0  0  0  0  0  0  0  0  0  0  0  0  # atno 3721 bound_to 3712
   -4.0755  -23.2944   10.6581 H   0  0  0  0  0  0  0  0  0  0  0  0  # atno 3767 bound_to 3762
    3.1033  -20.3244    8.5670 H   0  0  0  0  0  0  0  0  0  0  0  0  # atno 3841 bound_to 3832
    3.8038   -8.6427    3.8598 LP  0  0  0  0  0  0  0  0  0  0  0  0  # atno 4297 bound_to 1298
    4.9072   -9.2871    4.8766 LP  0  0  0  0  0  0  0  0  0  0  0  0  # atno 4298 bound_to 1298
    1.2452   -7.9359    7.0496 LP  0  0  0  0  0  0  0  0  0  0  0  0  # atno 4299 bound_to 2456
    0.4536   -9.0750    7.9112 LP  0  0  0  0  0  0  0  0  0  0  0  0  # atno 4300 bound_to 2456
    2.0316   -7.8449    5.9252 LP  0  0  0  0  0  0  0  0  0  0  0  0  # atno 4301 bound_to 2510
    2.6755   -7.8968    4.4254 LP  0  0  0  0  0  0  0  0  0  0  0  0  # atno 4302 bound_to 2510
   -3.2859  -16.9147   14.7196 LP  0  0  0  0  0  0  0  0  0  0  0  0  # atno 4306 bound_to 3712
   -3.3865  -16.9919   13.0916 LP  0  0  0  0  0  0  0  0  0  0  0  0  # atno 4307 bound_to 3712
    2.0253  -21.0113    9.5378 LP  0  0  0  0  0  0  0  0  0  0  0  0  # atno 4314 bound_to 3832
    1.6193  -19.7162    8.6297 LP  0  0  0  0  0  0  0  0  0  0  0  0  # atno 4315 bound_to 3832
   -5.4522  -22.4963   10.2913 LP  0  0  0  0  0  0  0  0  0  0  0  0  # atno 4318 bound_to 3762
   -4.5995  -22.0846   11.6217 LP  0  0  0  0  0  0  0  0  0  0  0  0  # atno 4319 bound_to 3762
   -3.9204   -5.2972    9.2069 LP  0  0  0  0  0  0  0  0  0  0  0  0  # atno 4320 bound_to 2467
   -5.4821   -5.2970    8.7296 LP  0  0  0  0  0  0  0  0  0  0  0  0  # atno 4321 bound_to 2467

> <Gold.Score>
     Score     S(PLP)   S(hbond)     S(cho)   S(metal)  DE(clash)   DE(tors)     intcor
     42.78     -40.83       1.00       0.00       0.00       0.00       0.52       0.00

> <Gold.PLP.Fitness>
42.7785

> <Gold.PLP.PLP>
-40.8270

> <Gold.PLP.part.hbond>
-1.0000

> <Gold.PLP.part.metal>
0.0000

> <Gold.PLP.part.buried>
-4.3282

> <Gold.PLP.part.nonpolar>
-37.1618

> <Gold.PLP.part.repulsive>
0.2032

> <Gold.PLP.ligand.clash>
0.0000

> <Gold.PLP.ligand.torsion>
0.5243

> <Gold.PLP.Chemscore.Hbond>
1.0000

> <Gold.PLP.Chemscore.CHOScore>
0.0000

> <Gold.PLP.Chemscore.Metal>
0.0000

> <Gold.Chemscore.Hbonds>
donor molecule, donor type, donor heavy atom, donor atom, acceptor molecule, acceptor atom, score
      P1  H  3712  3721       L1     8  1.00

> <Gold.PLP.Chemscore.Internal.Correction>
0.0002

