#       Name:                EN300-43851_i001
#       Creating user name   fsindt
#       Creation time:       Mon Feb 27 17:50:22 2023


#       File generated by GOLD software.
#

@<TRIPOS>MOLECULE
EN300-43851_i001|acide_3|mol2|206|dock17
    23    24     1
SMALL
USER_CHARGES


@<TRIPOS>ATOM
      1 C1          -0.7700 -15.3204  14.0246 C.3            1 <1>                0.0000
      2 C2           0.0727 -15.1101  12.7931 C.2            1 <1>                0.0000
      3 N3          -0.2421 -14.3920  11.7410 N.2            1 <1>                0.0000
      4 N4           0.8308 -14.4777  10.8442 N.pl3          1 <1>                0.0000
      5 N5           1.7450 -15.2240  11.3580 N.2            1 <1>                0.0000
      6 C6           1.3531 -15.6405  12.5500 C.2            1 <1>                0.0000
      7 C7           2.1177 -16.5138  13.4588 C.2            1 <1>                0.0000
      8 O8           1.9473 -16.4375  14.6676 O.co2          1 <1>                0.0000
      9 O9           2.9226 -17.3146  13.0040 O.co2          1 <1>               -1.0000
     10 C10          0.8977 -13.8527   9.5916 C.ar           1 <1>                0.0000
     11 C11          0.5259 -12.5215   9.4582 C.ar           1 <1>                0.0000
     12 C12          0.5924 -11.9074   8.2232 C.ar           1 <1>                0.0000
     13 C13          1.0295 -12.6184   7.1179 C.ar           1 <1>                0.0000
     14 F14          1.0943 -12.0159   5.9105 F              1 <1>                0.0000
     15 C15          1.4008 -13.9464   7.2489 C.ar           1 <1>                0.0000
     16 C16          1.3411 -14.5623   8.4834 C.ar           1 <1>                0.0000
     17 H17         -1.4026 -16.1972  13.8866 H              1 <1>                0.0000
     18 H18         -0.1213 -15.4725  14.8873 H              1 <1>                0.0000
     19 H19         -1.3958 -14.4435  14.1908 H              1 <1>                0.0000
     20 H20          0.1845 -11.9668  10.3197 H              1 <1>                0.0000
     21 H21          0.3030 -10.8722   8.1189 H              1 <1>                0.0000
     22 H22          1.7414 -14.4992   6.3859 H              1 <1>                0.0000
     23 H23          1.6311 -15.5977   8.5852 H              1 <1>                0.0000
@<TRIPOS>BOND
    1    1    2 1     
    2    1   17 1     
    3    1   18 1     
    4    1   19 1     
    5    2    3 2     
    6    2    6 1     
    7    3    4 1     
    8    4    5 1     
    9    4   10 1     
   10    5    6 2     
   11    6    7 1     
   12    7    8 ar    
   13    7    9 ar    
   14   10   11 ar    
   15   10   16 ar    
   16   11   12 ar    
   17   11   20 1     
   18   12   13 ar    
   19   12   21 1     
   20   13   14 1     
   21   13   15 ar    
   22   15   16 ar    
   23   15   22 1     
   24   16   23 1     
@<TRIPOS>SUBSTRUCTURE
      1 ****           1
@<TRIPOS>COMMENT
> <Gold.Version>
2022.2.0

> <Gold.Id.Protein>
3pbl|protein|mol2

> <Gold.Protein.RotatedTorsions>
[ 1303 1298 1297 1294 ] final  107.93 input  179.99 | X-H torsion
[ 2461 2456 2455 2452 ] final   50.31 input   30.03 | X-H torsion
[ 2515 2510 2509 2506 ] final  -66.11 input  -89.99 | X-H torsion
[ 3721 3712 3711 3710 ] final -101.27 input -179.91 | X-H torsion
[ 3841 3832 3831 3830 ] final -148.39 input -179.91 | X-H torsion
[ 3767 3762 3761 3758 ] final   35.73 input  -89.99 | X-H torsion
[ 2472 2467 2466 2463 ] final   -5.14 input  -89.97 | X-H torsion

> <Gold.Protein.ActiveResidues>
 VAL82   VAL86   LEU89   PHE106  VAL107  ASP110  VAL111  MET112  CYS114  THR115 
 CYS181  SER182  ILE183  PHE188  VAL189  ILE190  SER192  SER193  SER196  TRP342 
 PHE345  PHE346  HIS349  VAL350  TYR365  THR369  GLY372  TYR373 

> <Gold.Protein.RotatedAtoms>
    4.6264   -9.9307    4.9318 H   0  0  0  0  0  0  0  0  0  0  0  0  # atno 1303 bound_to 1298
    1.8017   -7.9755    7.2835 H   0  0  0  0  0  0  0  0  0  0  0  0  # atno 2461 bound_to 2456
   -3.7536   -4.8960    8.1423 H   0  0  0  0  0  0  0  0  0  0  0  0  # atno 2472 bound_to 2467
    2.8317   -8.5958    4.4129 H   0  0  0  0  0  0  0  0  0  0  0  0  # atno 2515 bound_to 2510
   -3.1042  -16.8237   14.6018 H   0  0  0  0  0  0  0  0  0  0  0  0  # atno 3721 bound_to 3712
   -4.9061  -23.1110   10.0733 H   0  0  0  0  0  0  0  0  0  0  0  0  # atno 3767 bound_to 3762
    2.6078  -19.7401    8.3506 H   0  0  0  0  0  0  0  0  0  0  0  0  # atno 3841 bound_to 3832
    3.3409   -9.7054    3.9505 LP  0  0  0  0  0  0  0  0  0  0  0  0  # atno 4297 bound_to 1298
    4.3946   -8.4850    4.2091 LP  0  0  0  0  0  0  0  0  0  0  0  0  # atno 4298 bound_to 1298
    0.3382   -8.6755    7.4719 LP  0  0  0  0  0  0  0  0  0  0  0  0  # atno 4299 bound_to 2456
    1.5980   -9.1570    8.3926 LP  0  0  0  0  0  0  0  0  0  0  0  0  # atno 4300 bound_to 2456
    2.2828   -8.9694    5.9045 LP  0  0  0  0  0  0  0  0  0  0  0  0  # atno 4301 bound_to 2510
    2.1821   -7.4338    5.3582 LP  0  0  0  0  0  0  0  0  0  0  0  0  # atno 4302 bound_to 2510
   -3.3356  -17.0893   13.0353 LP  0  0  0  0  0  0  0  0  0  0  0  0  # atno 4306 bound_to 3712
   -2.6082  -18.2138   13.9697 LP  0  0  0  0  0  0  0  0  0  0  0  0  # atno 4307 bound_to 3712
    2.8080  -21.1181    9.1488 LP  0  0  0  0  0  0  0  0  0  0  0  0  # atno 4314 bound_to 3832
    1.4090  -20.2844    9.2686 LP  0  0  0  0  0  0  0  0  0  0  0  0  # atno 4315 bound_to 3832
   -5.2840  -21.9334   11.1397 LP  0  0  0  0  0  0  0  0  0  0  0  0  # atno 4318 bound_to 3762
   -3.9373  -22.8309   11.3578 LP  0  0  0  0  0  0  0  0  0  0  0  0  # atno 4319 bound_to 3762
   -4.5855   -5.4518    9.4328 LP  0  0  0  0  0  0  0  0  0  0  0  0  # atno 4320 bound_to 2467
   -5.3777   -5.0456    8.0639 LP  0  0  0  0  0  0  0  0  0  0  0  0  # atno 4321 bound_to 2467

> <Gold.Score>
     Score     S(PLP)   S(hbond)     S(cho)   S(metal)  DE(clash)   DE(tors)     intcor
     44.70     -46.08       0.27       0.00       0.00       0.00       1.10       0.00

> <Gold.PLP.Fitness>
44.6990

> <Gold.PLP.PLP>
-46.0846

> <Gold.PLP.part.hbond>
-0.7701

> <Gold.PLP.part.metal>
0.0000

> <Gold.PLP.part.buried>
-6.1893

> <Gold.PLP.part.nonpolar>
-41.7806

> <Gold.PLP.part.repulsive>
0.9748

> <Gold.PLP.ligand.clash>
0.0000

> <Gold.PLP.ligand.torsion>
1.0962

> <Gold.PLP.Chemscore.Hbond>
0.2688

> <Gold.PLP.Chemscore.CHOScore>
0.0000

> <Gold.PLP.Chemscore.Metal>
0.0000

> <Gold.Chemscore.Hbonds>
donor molecule, donor type, donor heavy atom, donor atom, acceptor molecule, acceptor atom, score
      P1  H  2305  2313       L1     8  0.27

> <Gold.PLP.Chemscore.Internal.Correction>
0.0002

