#       Name:                EN300-43851_i001
#       Creating user name   fsindt
#       Creation time:       Mon Feb 27 17:50:24 2023


#       File generated by GOLD software.
#

@<TRIPOS>MOLECULE
EN300-43851_i001|acide_3|mol2|206|dock20
    23    24     1
SMALL
USER_CHARGES


@<TRIPOS>ATOM
      1 C1          -1.4773 -11.8714   9.9272 C.3            1 <1>                0.0000
      2 C2          -0.6402 -13.0722  10.2854 C.2            1 <1>                0.0000
      3 N3          -0.6027 -13.6838  11.4457 N.2            1 <1>                0.0000
      4 N4           0.3075 -14.7423  11.3274 N.pl3          1 <1>                0.0000
      5 N5           0.7872 -14.7481  10.1330 N.2            1 <1>                0.0000
      6 C6           0.2489 -13.7600   9.4390 C.2            1 <1>                0.0000
      7 C7           0.5368 -13.4309   8.0311 C.2            1 <1>                0.0000
      8 O8           1.0324 -14.2729   7.2953 O.co2          1 <1>                0.0000
      9 O9           0.2801 -12.3159   7.5990 O.co2          1 <1>               -1.0000
     10 C10          0.6415 -15.6472  12.3442 C.ar           1 <1>                0.0000
     11 C11          1.9704 -15.9817  12.5681 C.ar           1 <1>                0.0000
     12 C12          2.2975 -16.8736  13.5703 C.ar           1 <1>                0.0000
     13 C13          1.3010 -17.4344  14.3518 C.ar           1 <1>                0.0000
     14 F14          1.6230 -18.3065  15.3321 F              1 <1>                0.0000
     15 C15         -0.0251 -17.1020  14.1299 C.ar           1 <1>                0.0000
     16 C16         -0.3557 -16.2061  13.1325 C.ar           1 <1>                0.0000
     17 H17         -0.9179 -10.9612  10.1430 H              1 <1>                0.0000
     18 H18         -1.7234 -11.9036   8.8658 H              1 <1>                0.0000
     19 H19         -2.3960 -11.8809  10.5137 H              1 <1>                0.0000
     20 H20          2.7478 -15.5449  11.9587 H              1 <1>                0.0000
     21 H21          3.3309 -17.1343  13.7446 H              1 <1>                0.0000
     22 H22         -0.8008 -17.5404  14.7404 H              1 <1>                0.0000
     23 H23         -1.3899 -15.9470  12.9600 H              1 <1>                0.0000
@<TRIPOS>BOND
    1    1    2 1     
    2    1   17 1     
    3    1   18 1     
    4    1   19 1     
    5    2    3 2     
    6    2    6 1     
    7    3    4 1     
    8    4    5 1     
    9    4   10 1     
   10    5    6 2     
   11    6    7 1     
   12    7    8 ar    
   13    7    9 ar    
   14   10   11 ar    
   15   10   16 ar    
   16   11   12 ar    
   17   11   20 1     
   18   12   13 ar    
   19   12   21 1     
   20   13   14 1     
   21   13   15 ar    
   22   15   16 ar    
   23   15   22 1     
   24   16   23 1     
@<TRIPOS>SUBSTRUCTURE
      1 ****           1
@<TRIPOS>COMMENT
> <Gold.Version>
2022.2.0

> <Gold.Id.Protein>
3pbl|protein|mol2

> <Gold.Protein.RotatedTorsions>
[ 1303 1298 1297 1294 ] final -108.21 input  179.99 | X-H torsion
[ 2461 2456 2455 2452 ] final -143.73 input   30.03 | X-H torsion
[ 2515 2510 2509 2506 ] final   93.75 input  -89.99 | X-H torsion
[ 3721 3712 3711 3710 ] final   -6.79 input -179.91 | X-H torsion
[ 3841 3832 3831 3830 ] final -101.35 input -179.91 | X-H torsion
[ 3767 3762 3761 3758 ] final  128.83 input  -89.99 | X-H torsion
[ 2472 2467 2466 2463 ] final -122.41 input  -89.97 | X-H torsion

> <Gold.Protein.ActiveResidues>
 VAL82   VAL86   LEU89   PHE106  VAL107  ASP110  VAL111  MET112  CYS114  THR115 
 CYS181  SER182  ILE183  PHE188  VAL189  ILE190  SER192  SER193  SER196  TRP342 
 PHE345  PHE346  HIS349  VAL350  TYR365  THR369  GLY372  TYR373 

> <Gold.Protein.RotatedAtoms>
    4.0707   -8.5083    3.9937 H   0  0  0  0  0  0  0  0  0  0  0  0  # atno 1303 bound_to 1298
    0.8832   -9.2786    8.2647 H   0  0  0  0  0  0  0  0  0  0  0  0  # atno 2461 bound_to 2456
   -4.5408   -5.4481    9.4338 H   0  0  0  0  0  0  0  0  0  0  0  0  # atno 2472 bound_to 2467
    2.0374   -7.7812    5.8792 H   0  0  0  0  0  0  0  0  0  0  0  0  # atno 2515 bound_to 2510
   -2.5041  -17.9125   14.3334 H   0  0  0  0  0  0  0  0  0  0  0  0  # atno 3721 bound_to 3712
   -3.9217  -23.1160   11.0248 H   0  0  0  0  0  0  0  0  0  0  0  0  # atno 3767 bound_to 3762
    1.9821  -19.5849    8.5992 H   0  0  0  0  0  0  0  0  0  0  0  0  # atno 3841 bound_to 3832
    4.8297   -9.5984    4.9435 LP  0  0  0  0  0  0  0  0  0  0  0  0  # atno 4297 bound_to 1298
    3.4619  -10.0149    4.1546 LP  0  0  0  0  0  0  0  0  0  0  0  0  # atno 4298 bound_to 1298
    2.1550   -8.3667    7.7976 LP  0  0  0  0  0  0  0  0  0  0  0  0  # atno 4299 bound_to 2456
    0.6994   -8.1631    7.0860 LP  0  0  0  0  0  0  0  0  0  0  0  0  # atno 4300 bound_to 2456
    2.7016   -7.9666    4.3992 LP  0  0  0  0  0  0  0  0  0  0  0  0  # atno 4301 bound_to 2510
    2.5579   -9.2516    5.3966 LP  0  0  0  0  0  0  0  0  0  0  0  0  # atno 4302 bound_to 2510
   -3.4777  -16.6361   14.3585 LP  0  0  0  0  0  0  0  0  0  0  0  0  # atno 4306 bound_to 3712
   -3.1590  -17.4099   12.9563 LP  0  0  0  0  0  0  0  0  0  0  0  0  # atno 4307 bound_to 3712
    3.1264  -20.7103    8.5865 LP  0  0  0  0  0  0  0  0  0  0  0  0  # atno 4314 bound_to 3832
    1.8134  -20.8715    9.5438 LP  0  0  0  0  0  0  0  0  0  0  0  0  # atno 4315 bound_to 3832
   -5.2369  -22.8243   10.1017 LP  0  0  0  0  0  0  0  0  0  0  0  0  # atno 4318 bound_to 3762
   -4.9685  -21.9350   11.4447 LP  0  0  0  0  0  0  0  0  0  0  0  0  # atno 4319 bound_to 3762
   -5.3997   -5.0611    8.1000 LP  0  0  0  0  0  0  0  0  0  0  0  0  # atno 4320 bound_to 2467
   -3.7764   -4.8845    8.1055 LP  0  0  0  0  0  0  0  0  0  0  0  0  # atno 4321 bound_to 2467

> <Gold.Score>
     Score     S(PLP)   S(hbond)     S(cho)   S(metal)  DE(clash)   DE(tors)     intcor
     41.19     -43.01       0.00       0.00       0.00       0.00       0.91       0.00

> <Gold.PLP.Fitness>
41.1880

> <Gold.PLP.PLP>
-43.0088

> <Gold.PLP.part.hbond>
0.0000

> <Gold.PLP.part.metal>
0.0000

> <Gold.PLP.part.buried>
-4.5474

> <Gold.PLP.part.nonpolar>
-39.3543

> <Gold.PLP.part.repulsive>
0.2449

> <Gold.PLP.ligand.clash>
0.0000

> <Gold.PLP.ligand.torsion>
0.9104

> <Gold.PLP.Chemscore.Hbond>
0.0000

> <Gold.PLP.Chemscore.CHOScore>
0.0000

> <Gold.PLP.Chemscore.Metal>
0.0000

> <Gold.PLP.Chemscore.Internal.Correction>
0.0002

