#       Name:                EN300-43851_i001
#       Creating user name   fsindt
#       Creation time:       Mon Feb 27 17:50:13 2023


#       File generated by GOLD software.
#

@<TRIPOS>MOLECULE
EN300-43851_i001|acide_3|mol2|206|dock1
    23    24     1
SMALL
USER_CHARGES


@<TRIPOS>ATOM
      1 C1          -2.2902 -11.3512  10.6817 C.3            1 <1>                0.0000
      2 C2          -1.2655 -12.4469  10.8248 C.2            1 <1>                0.0000
      3 N3          -1.1189 -13.2542  11.8487 N.2            1 <1>                0.0000
      4 N4          -0.0493 -14.1094  11.5528 N.pl3          1 <1>                0.0000
      5 N5           0.4146 -13.8098  10.3902 N.2            1 <1>                0.0000
      6 C6          -0.2835 -12.8077   9.8839 C.2            1 <1>                0.0000
      7 C7          -0.0652 -12.1741   8.5708 C.2            1 <1>                0.0000
      8 O8          -0.3933 -11.0095   8.3916 O.co2          1 <1>                0.0000
      9 O9           0.4438 -12.8131   7.6606 O.co2          1 <1>               -1.0000
     10 C10          0.4364 -15.1254  12.3870 C.ar           1 <1>                0.0000
     11 C11          1.7299 -15.6024  12.2208 C.ar           1 <1>                0.0000
     12 C12          2.2067 -16.6036  13.0436 C.ar           1 <1>                0.0000
     13 C13          1.3957 -17.1321  14.0341 C.ar           1 <1>                0.0000
     14 F14          1.8640 -18.1114  14.8384 F              1 <1>                0.0000
     15 C15          0.1051 -16.6578  14.2014 C.ar           1 <1>                0.0000
     16 C16         -0.3733 -15.6526  13.3843 C.ar           1 <1>                0.0000
     17 H17         -1.8849 -10.4206  11.0788 H              1 <1>                0.0000
     18 H18         -2.5369 -11.2197   9.6281 H              1 <1>                0.0000
     19 H19         -3.1900 -11.6207  11.2347 H              1 <1>                0.0000
     20 H20          2.3626 -15.1908  11.4483 H              1 <1>                0.0000
     21 H21          3.2125 -16.9750  12.9144 H              1 <1>                0.0000
     22 H22         -0.5258 -17.0712  14.9743 H              1 <1>                0.0000
     23 H23         -1.3795 -15.2828  13.5154 H              1 <1>                0.0000
@<TRIPOS>BOND
    1    1    2 1     
    2    1   17 1     
    3    1   18 1     
    4    1   19 1     
    5    2    3 2     
    6    2    6 1     
    7    3    4 1     
    8    4    5 1     
    9    4   10 1     
   10    5    6 2     
   11    6    7 1     
   12    7    8 ar    
   13    7    9 ar    
   14   10   11 ar    
   15   10   16 ar    
   16   11   12 ar    
   17   11   20 1     
   18   12   13 ar    
   19   12   21 1     
   20   13   14 1     
   21   13   15 ar    
   22   15   16 ar    
   23   15   22 1     
   24   16   23 1     
@<TRIPOS>SUBSTRUCTURE
      1 ****           1
@<TRIPOS>COMMENT
> <Gold.Version>
2022.2.0

> <Gold.Id.Protein>
3pbl|protein|mol2

> <Gold.Protein.RotatedTorsions>
[ 1303 1298 1297 1294 ] final  -65.00 input  179.99 | X-H torsion
[ 2461 2456 2455 2452 ] final -128.16 input   30.03 | X-H torsion
[ 2515 2510 2509 2506 ] final  135.56 input  -89.99 | X-H torsion
[ 3721 3712 3711 3710 ] final   82.31 input -179.91 | X-H torsion
[ 3841 3832 3831 3830 ] final  -41.46 input -179.91 | X-H torsion
[ 3767 3762 3761 3758 ] final  164.15 input  -89.99 | X-H torsion
[ 2472 2467 2466 2463 ] final  -51.96 input  -89.97 | X-H torsion

> <Gold.Protein.ActiveResidues>
 VAL82   VAL86   LEU89   PHE106  VAL107  ASP110  VAL111  MET112  CYS114  THR115 
 CYS181  SER182  ILE183  PHE188  VAL189  ILE190  SER192  SER193  SER196  TRP342 
 PHE345  PHE346  HIS349  VAL350  TYR365  THR369  GLY372  TYR373 

> <Gold.Protein.RotatedAtoms>
    3.5436   -8.9076    3.7824 H   0  0  0  0  0  0  0  0  0  0  0  0  # atno 1303 bound_to 1298
    0.6709   -9.2223    8.1343 H   0  0  0  0  0  0  0  0  0  0  0  0  # atno 2461 bound_to 2456
   -3.6785   -5.1414    8.8462 H   0  0  0  0  0  0  0  0  0  0  0  0  # atno 2472 bound_to 2467
    2.0827   -8.4161    6.0964 H   0  0  0  0  0  0  0  0  0  0  0  0  # atno 2515 bound_to 2510
   -2.7291  -17.7024   13.1577 H   0  0  0  0  0  0  0  0  0  0  0  0  # atno 3721 bound_to 3712
   -3.9770  -22.7287   11.4422 H   0  0  0  0  0  0  0  0  0  0  0  0  # atno 3767 bound_to 3762
    1.5619  -19.9996    9.2306 H   0  0  0  0  0  0  0  0  0  0  0  0  # atno 3841 bound_to 3832
    4.8783   -8.9420    4.7225 LP  0  0  0  0  0  0  0  0  0  0  0  0  # atno 4297 bound_to 1298
    3.9405  -10.2719    4.5869 LP  0  0  0  0  0  0  0  0  0  0  0  0  # atno 4298 bound_to 1298
    2.1502   -8.5482    7.9772 LP  0  0  0  0  0  0  0  0  0  0  0  0  # atno 4299 bound_to 2456
    0.9165   -8.0379    7.0368 LP  0  0  0  0  0  0  0  0  0  0  0  0  # atno 4300 bound_to 2456
    2.4326   -7.4939    4.7953 LP  0  0  0  0  0  0  0  0  0  0  0  0  # atno 4301 bound_to 2510
    2.7816   -9.0891    4.7832 LP  0  0  0  0  0  0  0  0  0  0  0  0  # atno 4302 bound_to 2510
   -2.8137  -17.7324   14.7607 LP  0  0  0  0  0  0  0  0  0  0  0  0  # atno 4306 bound_to 3712
   -3.5632  -16.5562   13.9115 LP  0  0  0  0  0  0  0  0  0  0  0  0  # atno 4307 bound_to 3712
    2.7438  -19.9533    8.1456 LP  0  0  0  0  0  0  0  0  0  0  0  0  # atno 4314 bound_to 3832
    2.6813  -21.1495    9.2554 LP  0  0  0  0  0  0  0  0  0  0  0  0  # atno 4315 bound_to 3832
   -4.7905  -23.1820   10.1007 LP  0  0  0  0  0  0  0  0  0  0  0  0  # atno 4318 bound_to 3762
   -5.3596  -21.9645   11.0284 LP  0  0  0  0  0  0  0  0  0  0  0  0  # atno 4319 bound_to 3762
   -5.2651   -5.4138    9.1199 LP  0  0  0  0  0  0  0  0  0  0  0  0  # atno 4320 bound_to 2467
   -4.7732   -4.8383    7.6731 LP  0  0  0  0  0  0  0  0  0  0  0  0  # atno 4321 bound_to 2467

> <Gold.Score>
     Score     S(PLP)   S(hbond)     S(cho)   S(metal)  DE(clash)   DE(tors)     intcor
     49.12     -47.11       1.00       0.00       0.00       0.00       0.50       0.00

> <Gold.PLP.Fitness>
49.1225

> <Gold.PLP.PLP>
-47.1147

> <Gold.PLP.part.hbond>
-1.5671

> <Gold.PLP.part.metal>
0.0000

> <Gold.PLP.part.buried>
-6.3978

> <Gold.PLP.part.nonpolar>
-40.8487

> <Gold.PLP.part.repulsive>
0.1089

> <Gold.PLP.ligand.clash>
0.0000

> <Gold.PLP.ligand.torsion>
0.4962

> <Gold.PLP.Chemscore.Hbond>
1.0000

> <Gold.PLP.Chemscore.CHOScore>
0.0000

> <Gold.PLP.Chemscore.Metal>
0.0000

> <Gold.Chemscore.Hbonds>
donor molecule, donor type, donor heavy atom, donor atom, acceptor molecule, acceptor atom, score
      P1  H  2456  2461       L1     8  1.00

> <Gold.PLP.Chemscore.Internal.Correction>
0.0002

