#       Name:                EN300-43851_i001
#       Creating user name   fsindt
#       Creation time:       Mon Feb 27 17:50:15 2023


#       File generated by GOLD software.
#

@<TRIPOS>MOLECULE
EN300-43851_i001|acide_3|mol2|206|dock4
    23    24     1
SMALL
USER_CHARGES


@<TRIPOS>ATOM
      1 C1          -1.9158 -10.8843  10.7532 C.3            1 <1>                0.0000
      2 C2          -1.1780 -12.1974  10.8009 C.2            1 <1>                0.0000
      3 N3          -1.2596 -13.1088  11.7414 N.2            1 <1>                0.0000
      4 N4          -0.4064 -14.1586  11.3768 N.pl3          1 <1>                0.0000
      5 N5           0.1566 -13.8683  10.2563 N.2            1 <1>                0.0000
      6 C6          -0.2720 -12.6880   9.8426 C.2            1 <1>                0.0000
      7 C7           0.1349 -12.0030   8.6022 C.2            1 <1>                0.0000
      8 O8          -0.2181 -10.8502   8.3963 O.co2          1 <1>                0.0000
      9 O9           0.8251 -12.5876   7.7790 O.co2          1 <1>               -1.0000
     10 C10         -0.1996 -15.3334  12.1125 C.ar           1 <1>                0.0000
     11 C11         -0.0989 -15.2784  13.4963 C.ar           1 <1>                0.0000
     12 C12          0.1050 -16.4370  14.2194 C.ar           1 <1>                0.0000
     13 C13          0.2090 -17.6534  13.5653 C.ar           1 <1>                0.0000
     14 F14          0.4081 -18.7859  14.2744 F              1 <1>                0.0000
     15 C15          0.1090 -17.7103  12.1850 C.ar           1 <1>                0.0000
     16 C16         -0.1007 -16.5546  11.4589 C.ar           1 <1>                0.0000
     17 H17         -1.3212 -10.1154  11.2465 H              1 <1>                0.0000
     18 H18         -2.0866 -10.6009   9.7146 H              1 <1>                0.0000
     19 H19         -2.8732 -10.9867  11.2640 H              1 <1>                0.0000
     20 H20         -0.1796 -14.3300  14.0068 H              1 <1>                0.0000
     21 H21          0.1837 -16.3946  15.2956 H              1 <1>                0.0000
     22 H22          0.1904 -18.6597  11.6767 H              1 <1>                0.0000
     23 H23         -0.1790 -16.5994  10.3826 H              1 <1>                0.0000
@<TRIPOS>BOND
    1    1    2 1     
    2    1   17 1     
    3    1   18 1     
    4    1   19 1     
    5    2    3 2     
    6    2    6 1     
    7    3    4 1     
    8    4    5 1     
    9    4   10 1     
   10    5    6 2     
   11    6    7 1     
   12    7    8 ar    
   13    7    9 ar    
   14   10   11 ar    
   15   10   16 ar    
   16   11   12 ar    
   17   11   20 1     
   18   12   13 ar    
   19   12   21 1     
   20   13   14 1     
   21   13   15 ar    
   22   15   16 ar    
   23   15   22 1     
   24   16   23 1     
@<TRIPOS>SUBSTRUCTURE
      1 ****           1
@<TRIPOS>COMMENT
> <Gold.Version>
2022.2.0

> <Gold.Id.Protein>
3pbl|protein|mol2

> <Gold.Protein.RotatedTorsions>
[ 1303 1298 1297 1294 ] final -158.94 input  179.99 | X-H torsion
[ 2461 2456 2455 2452 ] final -125.81 input   30.03 | X-H torsion
[ 2515 2510 2509 2506 ] final  -15.97 input  -89.99 | X-H torsion
[ 3721 3712 3711 3710 ] final  130.51 input -179.91 | X-H torsion
[ 3841 3832 3831 3830 ] final   22.99 input -179.91 | X-H torsion
[ 3767 3762 3761 3758 ] final -117.00 input  -89.99 | X-H torsion
[ 2472 2467 2466 2463 ] final -109.92 input  -89.97 | X-H torsion

> <Gold.Protein.ActiveResidues>
 VAL82   VAL86   LEU89   PHE106  VAL107  ASP110  VAL111  MET112  CYS114  THR115 
 CYS181  SER182  ILE183  PHE188  VAL189  ILE190  SER192  SER193  SER196  TRP342 
 PHE345  PHE346  HIS349  VAL350  TYR365  THR369  GLY372  TYR373 

> <Gold.Protein.RotatedAtoms>
    4.7002   -8.6398    4.4822 H   0  0  0  0  0  0  0  0  0  0  0  0  # atno 1303 bound_to 1298
    0.6422   -9.2097    8.1116 H   0  0  0  0  0  0  0  0  0  0  0  0  # atno 2461 bound_to 2456
   -4.3388   -5.4185    9.4134 H   0  0  0  0  0  0  0  0  0  0  0  0  # atno 2472 bound_to 2467
    2.6437   -7.8211    4.4626 H   0  0  0  0  0  0  0  0  0  0  0  0  # atno 2515 bound_to 2510
   -3.0839  -17.0971   13.0676 H   0  0  0  0  0  0  0  0  0  0  0  0  # atno 3721 bound_to 3712
   -4.8898  -21.9550   11.4955 H   0  0  0  0  0  0  0  0  0  0  0  0  # atno 3767 bound_to 3762
    1.9786  -20.7245    9.6217 H   0  0  0  0  0  0  0  0  0  0  0  0  # atno 3841 bound_to 3832
    4.2972  -10.1894    4.8028 LP  0  0  0  0  0  0  0  0  0  0  0  0  # atno 4297 bound_to 1298
    3.3645   -9.2924    3.8066 LP  0  0  0  0  0  0  0  0  0  0  0  0  # atno 4298 bound_to 1298
    2.1436   -8.5763    8.0030 LP  0  0  0  0  0  0  0  0  0  0  0  0  # atno 4299 bound_to 2456
    0.9518   -8.0224    7.0337 LP  0  0  0  0  0  0  0  0  0  0  0  0  # atno 4300 bound_to 2456
    2.6243   -9.2560    5.2414 LP  0  0  0  0  0  0  0  0  0  0  0  0  # atno 4301 bound_to 2510
    2.0287   -7.9223    5.9716 LP  0  0  0  0  0  0  0  0  0  0  0  0  # atno 4302 bound_to 2510
   -2.6107  -18.1810   14.1534 LP  0  0  0  0  0  0  0  0  0  0  0  0  # atno 4306 bound_to 3712
   -3.3566  -16.8064   14.6229 LP  0  0  0  0  0  0  0  0  0  0  0  0  # atno 4307 bound_to 3712
    1.8171  -19.6459    8.4442 LP  0  0  0  0  0  0  0  0  0  0  0  0  # atno 4314 bound_to 3832
    3.1267  -20.6194    8.5050 LP  0  0  0  0  0  0  0  0  0  0  0  0  # atno 4315 bound_to 3832
   -3.9421  -23.1659   10.9456 LP  0  0  0  0  0  0  0  0  0  0  0  0  # atno 4318 bound_to 3762
   -5.2956  -22.7539   10.1302 LP  0  0  0  0  0  0  0  0  0  0  0  0  # atno 4319 bound_to 3762
   -5.4756   -5.1330    8.2765 LP  0  0  0  0  0  0  0  0  0  0  0  0  # atno 4320 bound_to 2467
   -3.9025   -4.8420    7.9493 LP  0  0  0  0  0  0  0  0  0  0  0  0  # atno 4321 bound_to 2467

> <Gold.Score>
     Score     S(PLP)   S(hbond)     S(cho)   S(metal)  DE(clash)   DE(tors)     intcor
     45.26     -43.58       1.00       0.00       0.00       0.00       0.66       0.00

> <Gold.PLP.Fitness>
45.2582

> <Gold.PLP.PLP>
-43.5832

> <Gold.PLP.part.hbond>
-1.5932

> <Gold.PLP.part.metal>
0.0000

> <Gold.PLP.part.buried>
-6.8458

> <Gold.PLP.part.nonpolar>
-35.5496

> <Gold.PLP.part.repulsive>
0.1159

> <Gold.PLP.ligand.clash>
0.0000

> <Gold.PLP.ligand.torsion>
0.6626

> <Gold.PLP.Chemscore.Hbond>
1.0000

> <Gold.PLP.Chemscore.CHOScore>
0.0000

> <Gold.PLP.Chemscore.Metal>
0.0000

> <Gold.Chemscore.Hbonds>
donor molecule, donor type, donor heavy atom, donor atom, acceptor molecule, acceptor atom, score
      P1  H  2456  2461       L1     8  1.00

> <Gold.PLP.Chemscore.Internal.Correction>
0.0002

