#       Name:                EN300-43851_i001
#       Creating user name   fsindt
#       Creation time:       Mon Feb 27 17:50:24 2023


#       File generated by GOLD software.
#

@<TRIPOS>MOLECULE
EN300-43851_i001|acide_3|mol2|206|dock19
    23    24     1
SMALL
USER_CHARGES


@<TRIPOS>ATOM
      1 C1           2.0019 -16.3259  13.9774 C.3            1 <1>                0.0000
      2 C2           1.3228 -16.0664  12.6574 C.2            1 <1>                0.0000
      3 N3           1.6647 -15.1695  11.7628 N.2            1 <1>                0.0000
      4 N4           0.7609 -15.2802  10.6980 N.pl3          1 <1>                0.0000
      5 N5          -0.0838 -16.2143  10.9636 N.2            1 <1>                0.0000
      6 C6           0.2020 -16.7427  12.1413 C.2            1 <1>                0.0000
      7 C7          -0.5299 -17.8391  12.8012 C.2            1 <1>                0.0000
      8 O8          -0.6017 -17.8790  14.0216 O.co2          1 <1>                0.0000
      9 O9          -1.0652 -18.7090  12.1284 O.co2          1 <1>               -1.0000
     10 C10          0.7743 -14.5006   9.5334 C.ar           1 <1>                0.0000
     11 C11          1.0687 -13.1456   9.6073 C.ar           1 <1>                0.0000
     12 C12          1.0813 -12.3791   8.4589 C.ar           1 <1>                0.0000
     13 C13          0.8007 -12.9610   7.2337 C.ar           1 <1>                0.0000
     14 F14          0.8139 -12.2095   6.1111 F              1 <1>                0.0000
     15 C15          0.5067 -14.3124   7.1579 C.ar           1 <1>                0.0000
     16 C16          0.4988 -15.0834   8.3035 C.ar           1 <1>                0.0000
     17 H17          1.5486 -15.7024  14.7480 H              1 <1>                0.0000
     18 H18          1.8864 -17.3761  14.2452 H              1 <1>                0.0000
     19 H19          3.0621 -16.0868  13.8937 H              1 <1>                0.0000
     20 H20          1.2872 -12.6913  10.5625 H              1 <1>                0.0000
     21 H21          1.3099 -11.3251   8.5159 H              1 <1>                0.0000
     22 H22          0.2881 -14.7643   6.2017 H              1 <1>                0.0000
     23 H23          0.2699 -16.1372   8.2439 H              1 <1>                0.0000
@<TRIPOS>BOND
    1    1    2 1     
    2    1   17 1     
    3    1   18 1     
    4    1   19 1     
    5    2    3 2     
    6    2    6 1     
    7    3    4 1     
    8    4    5 1     
    9    4   10 1     
   10    5    6 2     
   11    6    7 1     
   12    7    8 ar    
   13    7    9 ar    
   14   10   11 ar    
   15   10   16 ar    
   16   11   12 ar    
   17   11   20 1     
   18   12   13 ar    
   19   12   21 1     
   20   13   14 1     
   21   13   15 ar    
   22   15   16 ar    
   23   15   22 1     
   24   16   23 1     
@<TRIPOS>SUBSTRUCTURE
      1 ****           1
@<TRIPOS>COMMENT
> <Gold.Version>
2022.2.0

> <Gold.Id.Protein>
3pbl|protein|mol2

> <Gold.Protein.RotatedTorsions>
[ 1303 1298 1297 1294 ] final   91.66 input  179.99 | X-H torsion
[ 2461 2456 2455 2452 ] final -121.05 input   30.03 | X-H torsion
[ 2515 2510 2509 2506 ] final -175.89 input  -89.99 | X-H torsion
[ 3721 3712 3711 3710 ] final   -1.44 input -179.91 | X-H torsion
[ 3841 3832 3831 3830 ] final  127.73 input -179.91 | X-H torsion
[ 3767 3762 3761 3758 ] final  173.87 input  -89.99 | X-H torsion
[ 2472 2467 2466 2463 ] final  121.99 input  -89.97 | X-H torsion

> <Gold.Protein.ActiveResidues>
 VAL82   VAL86   LEU89   PHE106  VAL107  ASP110  VAL111  MET112  CYS114  THR115 
 CYS181  SER182  ILE183  PHE188  VAL189  ILE190  SER192  SER193  SER196  TRP342 
 PHE345  PHE346  HIS349  VAL350  TYR365  THR369  GLY372  TYR373 

> <Gold.Protein.RotatedAtoms>
    4.4359  -10.1057    4.8673 H   0  0  0  0  0  0  0  0  0  0  0  0  # atno 1303 bound_to 1298
    0.5871   -9.1810    8.0638 H   0  0  0  0  0  0  0  0  0  0  0  0  # atno 2461 bound_to 2456
   -5.4311   -5.0869    8.1598 H   0  0  0  0  0  0  0  0  0  0  0  0  # atno 2472 bound_to 2467
    2.3519   -9.0781    5.7967 H   0  0  0  0  0  0  0  0  0  0  0  0  # atno 2515 bound_to 2510
   -2.4901  -17.9481   14.2621 H   0  0  0  0  0  0  0  0  0  0  0  0  # atno 3721 bound_to 3712
   -4.0430  -22.6084   11.5243 H   0  0  0  0  0  0  0  0  0  0  0  0  # atno 3767 bound_to 3762
    3.1124  -20.6515    8.8542 H   0  0  0  0  0  0  0  0  0  0  0  0  # atno 3841 bound_to 3832
    3.3346   -9.4584    3.8502 LP  0  0  0  0  0  0  0  0  0  0  0  0  # atno 4297 bound_to 1298
    4.5915   -8.5570    4.3739 LP  0  0  0  0  0  0  0  0  0  0  0  0  # atno 4298 bound_to 1298
    2.1257   -8.6332    8.0536 LP  0  0  0  0  0  0  0  0  0  0  0  0  # atno 4299 bound_to 2456
    1.0247   -7.9941    7.0308 LP  0  0  0  0  0  0  0  0  0  0  0  0  # atno 4300 bound_to 2456
    2.1299   -7.4863    5.5089 LP  0  0  0  0  0  0  0  0  0  0  0  0  # atno 4301 bound_to 2510
    2.8150   -8.4344    4.3694 LP  0  0  0  0  0  0  0  0  0  0  0  0  # atno 4302 bound_to 2510
   -3.4499  -16.6727   14.4353 LP  0  0  0  0  0  0  0  0  0  0  0  0  # atno 4306 bound_to 3712
   -3.2030  -17.3323   12.9620 LP  0  0  0  0  0  0  0  0  0  0  0  0  # atno 4307 bound_to 3712
    1.6473  -20.7148    9.5064 LP  0  0  0  0  0  0  0  0  0  0  0  0  # atno 4314 bound_to 3832
    1.9867  -19.6349    8.3294 LP  0  0  0  0  0  0  0  0  0  0  0  0  # atno 4315 bound_to 3832
   -4.6546  -23.2485   10.1520 LP  0  0  0  0  0  0  0  0  0  0  0  0  # atno 4318 bound_to 3762
   -5.4295  -22.0181   10.8951 LP  0  0  0  0  0  0  0  0  0  0  0  0  # atno 4319 bound_to 3762
   -3.8168   -4.8680    8.0476 LP  0  0  0  0  0  0  0  0  0  0  0  0  # atno 4320 bound_to 2467
   -4.4692   -5.4386    9.4316 LP  0  0  0  0  0  0  0  0  0  0  0  0  # atno 4321 bound_to 2467

> <Gold.Score>
     Score     S(PLP)   S(hbond)     S(cho)   S(metal)  DE(clash)   DE(tors)     intcor
     42.24     -41.78       0.83       0.00       0.00       0.00       1.02       0.00

> <Gold.PLP.Fitness>
42.2423

> <Gold.PLP.PLP>
-41.7768

> <Gold.PLP.part.hbond>
-1.8942

> <Gold.PLP.part.metal>
0.0000

> <Gold.PLP.part.buried>
0.0795

> <Gold.PLP.part.nonpolar>
-40.1158

> <Gold.PLP.part.repulsive>
0.2194

> <Gold.PLP.ligand.clash>
0.0000

> <Gold.PLP.ligand.torsion>
1.0153

> <Gold.PLP.Chemscore.Hbond>
0.8320

> <Gold.PLP.Chemscore.CHOScore>
0.0000

> <Gold.PLP.Chemscore.Metal>
0.0000

> <Gold.Chemscore.Hbonds>
donor molecule, donor type, donor heavy atom, donor atom, acceptor molecule, acceptor atom, score
      P1  H  3712  3721       L1     8  0.83

> <Gold.PLP.Chemscore.Internal.Correction>
0.0002

