#       Name:                EN300-43851_i001
#       Creating user name   fsindt
#       Creation time:       Mon Feb 27 17:50:23 2023


#       File generated by GOLD software.
#

@<TRIPOS>MOLECULE
EN300-43851_i001|acide_3|mol2|206|dock18
    23    24     1
SMALL
USER_CHARGES


@<TRIPOS>ATOM
      1 C1          -0.7443 -18.3757  12.2176 C.3            1 <1>                0.0000
      2 C2          -0.0926 -17.1263  11.6836 C.2            1 <1>                0.0000
      3 N3          -0.2417 -16.6155  10.4843 N.2            1 <1>                0.0000
      4 N4           0.5462 -15.4585  10.4253 N.pl3          1 <1>                0.0000
      5 N5           1.1378 -15.2988  11.5572 N.2            1 <1>                0.0000
      6 C6           0.7897 -16.2766  12.3761 C.2            1 <1>                0.0000
      7 C7           1.2520 -16.4512  13.7651 C.2            1 <1>                0.0000
      8 O8           0.5156 -16.1568  14.6962 O.co2          1 <1>                0.0000
      9 O9           2.3718 -16.8904  13.9862 O.co2          1 <1>               -1.0000
     10 C10          0.6701 -14.6128   9.3146 C.ar           1 <1>                0.0000
     11 C11          0.4822 -15.1153   8.0338 C.ar           1 <1>                0.0000
     12 C12          0.6048 -14.2806   6.9408 C.ar           1 <1>                0.0000
     13 C13          0.9149 -12.9428   7.1211 C.ar           1 <1>                0.0000
     14 F14          1.0341 -12.1275   6.0505 F              1 <1>                0.0000
     15 C15          1.1027 -12.4397   8.3979 C.ar           1 <1>                0.0000
     16 C16          0.9753 -13.2701   9.4938 C.ar           1 <1>                0.0000
     17 H17         -0.1068 -19.2351  12.0102 H              1 <1>                0.0000
     18 H18         -0.8862 -18.2800  13.2941 H              1 <1>                0.0000
     19 H19         -1.7114 -18.5158  11.7347 H              1 <1>                0.0000
     20 H20          0.2408 -16.1585   7.8926 H              1 <1>                0.0000
     21 H21          0.4591 -14.6711   5.9445 H              1 <1>                0.0000
     22 H22          1.3445 -11.3963   8.5366 H              1 <1>                0.0000
     23 H23          1.1215 -12.8772  10.4892 H              1 <1>                0.0000
@<TRIPOS>BOND
    1    1    2 1     
    2    1   17 1     
    3    1   18 1     
    4    1   19 1     
    5    2    3 2     
    6    2    6 1     
    7    3    4 1     
    8    4    5 1     
    9    4   10 1     
   10    5    6 2     
   11    6    7 1     
   12    7    8 ar    
   13    7    9 ar    
   14   10   11 ar    
   15   10   16 ar    
   16   11   12 ar    
   17   11   20 1     
   18   12   13 ar    
   19   12   21 1     
   20   13   14 1     
   21   13   15 ar    
   22   15   16 ar    
   23   15   22 1     
   24   16   23 1     
@<TRIPOS>SUBSTRUCTURE
      1 ****           1
@<TRIPOS>COMMENT
> <Gold.Version>
2022.2.0

> <Gold.Id.Protein>
3pbl|protein|mol2

> <Gold.Protein.RotatedTorsions>
[ 1303 1298 1297 1294 ] final -178.11 input  179.99 | X-H torsion
[ 2461 2456 2455 2452 ] final  173.91 input   30.03 | X-H torsion
[ 2515 2510 2509 2506 ] final   41.77 input  -89.99 | X-H torsion
[ 3721 3712 3711 3710 ] final   27.54 input -179.91 | X-H torsion
[ 3841 3832 3831 3830 ] final    9.73 input -179.91 | X-H torsion
[ 3767 3762 3761 3758 ] final   64.81 input  -89.99 | X-H torsion
[ 2472 2467 2466 2463 ] final  -96.42 input  -89.97 | X-H torsion

> <Gold.Protein.ActiveResidues>
 VAL82   VAL86   LEU89   PHE106  VAL107  ASP110  VAL111  MET112  CYS114  THR115 
 CYS181  SER182  ILE183  PHE188  VAL189  ILE190  SER192  SER193  SER196  TRP342 
 PHE345  PHE346  HIS349  VAL350  TYR365  THR369  GLY372  TYR373 

> <Gold.Protein.RotatedAtoms>
    4.8448   -8.8505    4.6644 H   0  0  0  0  0  0  0  0  0  0  0  0  # atno 1303 bound_to 1298
    1.5444   -9.1814    8.3983 H   0  0  0  0  0  0  0  0  0  0  0  0  # atno 2461 bound_to 2456
   -4.1332   -5.3714    9.3454 H   0  0  0  0  0  0  0  0  0  0  0  0  # atno 2472 bound_to 2467
    2.2544   -7.4089    5.1745 H   0  0  0  0  0  0  0  0  0  0  0  0  # atno 2515 bound_to 2510
   -2.4785  -18.0342   13.8375 H   0  0  0  0  0  0  0  0  0  0  0  0  # atno 3721 bound_to 3712
   -4.5033  -23.3016   10.2332 H   0  0  0  0  0  0  0  0  0  0  0  0  # atno 3767 bound_to 3762
    1.8292  -20.5940    9.5973 H   0  0  0  0  0  0  0  0  0  0  0  0  # atno 3841 bound_to 3832
    4.0342  -10.2678    4.6504 LP  0  0  0  0  0  0  0  0  0  0  0  0  # atno 4297 bound_to 1298
    3.4829   -9.0032    3.7766 LP  0  0  0  0  0  0  0  0  0  0  0  0  # atno 4298 bound_to 1298
    1.8461   -7.9944    7.3178 LP  0  0  0  0  0  0  0  0  0  0  0  0  # atno 4299 bound_to 2456
    0.3474   -8.6326    7.4322 LP  0  0  0  0  0  0  0  0  0  0  0  0  # atno 4300 bound_to 2456
    2.8350   -8.7762    4.4968 LP  0  0  0  0  0  0  0  0  0  0  0  0  # atno 4301 bound_to 2510
    2.2074   -8.8145    6.0039 LP  0  0  0  0  0  0  0  0  0  0  0  0  # atno 4302 bound_to 2510
   -3.2519  -16.9684   14.7560 LP  0  0  0  0  0  0  0  0  0  0  0  0  # atno 4306 bound_to 3712
   -3.4143  -16.9371   13.1314 LP  0  0  0  0  0  0  0  0  0  0  0  0  # atno 4307 bound_to 3712
    2.0006  -19.6356    8.3213 LP  0  0  0  0  0  0  0  0  0  0  0  0  # atno 4314 bound_to 3832
    3.1158  -20.7806    8.6560 LP  0  0  0  0  0  0  0  0  0  0  0  0  # atno 4315 bound_to 3832
   -5.4835  -22.0993   10.7438 LP  0  0  0  0  0  0  0  0  0  0  0  0  # atno 4318 bound_to 3762
   -4.1405  -22.4745   11.5938 LP  0  0  0  0  0  0  0  0  0  0  0  0  # atno 4319 bound_to 3762
   -5.5095   -5.2106    8.4814 LP  0  0  0  0  0  0  0  0  0  0  0  0  # atno 4320 bound_to 2467
   -4.0742   -4.8116    7.8125 LP  0  0  0  0  0  0  0  0  0  0  0  0  # atno 4321 bound_to 2467

> <Gold.Score>
     Score     S(PLP)   S(hbond)     S(cho)   S(metal)  DE(clash)   DE(tors)     intcor
     42.86     -43.34       1.00       0.00       0.00       0.00       1.74       0.00

> <Gold.PLP.Fitness>
42.8594

> <Gold.PLP.PLP>
-43.3419

> <Gold.PLP.part.hbond>
-1.0000

> <Gold.PLP.part.metal>
0.0000

> <Gold.PLP.part.buried>
-2.5360

> <Gold.PLP.part.nonpolar>
-41.2689

> <Gold.PLP.part.repulsive>
0.2747

> <Gold.PLP.ligand.clash>
0.0000

> <Gold.PLP.ligand.torsion>
1.7414

> <Gold.PLP.Chemscore.Hbond>
1.0000

> <Gold.PLP.Chemscore.CHOScore>
0.0000

> <Gold.PLP.Chemscore.Metal>
0.0000

> <Gold.Chemscore.Hbonds>
donor molecule, donor type, donor heavy atom, donor atom, acceptor molecule, acceptor atom, score
      P1  H  2305  2313       L1     8  1.00

> <Gold.PLP.Chemscore.Internal.Correction>
0.0002

