#       Name:                EN300-43851_i001
#       Creating user name   fsindt
#       Creation time:       Mon Feb 27 17:50:15 2023


#       File generated by GOLD software.
#

@<TRIPOS>MOLECULE
EN300-43851_i001|acide_3|mol2|206|dock5
    23    24     1
SMALL
USER_CHARGES


@<TRIPOS>ATOM
      1 C1          -0.4310 -15.6953  13.9759 C.3            1 <1>                0.0000
      2 C2          -0.1974 -15.7006  12.4871 C.2            1 <1>                0.0000
      3 N3           0.0545 -14.6594  11.7295 N.2            1 <1>                0.0000
      4 N4           0.2015 -15.1272  10.4170 N.pl3          1 <1>                0.0000
      5 N5           0.0399 -16.4041  10.4091 N.2            1 <1>                0.0000
      6 C6          -0.2010 -16.8237  11.6395 C.2            1 <1>                0.0000
      7 C7          -0.4407 -18.2195  12.0491 C.2            1 <1>                0.0000
      8 O8          -0.3694 -19.1197  11.2242 O.co2          1 <1>                0.0000
      9 O9          -0.7110 -18.4771  13.2138 O.co2          1 <1>               -1.0000
     10 C10          0.4790 -14.3340   9.2955 C.ar           1 <1>                0.0000
     11 C11          0.7135 -12.9737   9.4469 C.ar           1 <1>                0.0000
     12 C12          0.9867 -12.1938   8.3407 C.ar           1 <1>                0.0000
     13 C13          1.0269 -12.7673   7.0807 C.ar           1 <1>                0.0000
     14 F14          1.2947 -12.0027   5.9996 F              1 <1>                0.0000
     15 C15          0.7931 -14.1239   6.9275 C.ar           1 <1>                0.0000
     16 C16          0.5253 -14.9083   8.0321 C.ar           1 <1>                0.0000
     17 H17         -1.4945 -15.5661  14.1763 H              1 <1>                0.0000
     18 H18         -0.0937 -16.6411  14.3999 H              1 <1>                0.0000
     19 H19          0.1263 -14.8750  14.4282 H              1 <1>                0.0000
     20 H20          0.6819 -12.5259  10.4293 H              1 <1>                0.0000
     21 H21          1.1688 -11.1358   8.4580 H              1 <1>                0.0000
     22 H22          0.8249 -14.5694   5.9442 H              1 <1>                0.0000
     23 H23          0.3435 -15.9661   7.9122 H              1 <1>                0.0000
@<TRIPOS>BOND
    1    1    2 1     
    2    1   17 1     
    3    1   18 1     
    4    1   19 1     
    5    2    3 2     
    6    2    6 1     
    7    3    4 1     
    8    4    5 1     
    9    4   10 1     
   10    5    6 2     
   11    6    7 1     
   12    7    8 ar    
   13    7    9 ar    
   14   10   11 ar    
   15   10   16 ar    
   16   11   12 ar    
   17   11   20 1     
   18   12   13 ar    
   19   12   21 1     
   20   13   14 1     
   21   13   15 ar    
   22   15   16 ar    
   23   15   22 1     
   24   16   23 1     
@<TRIPOS>SUBSTRUCTURE
      1 ****           1
@<TRIPOS>COMMENT
> <Gold.Version>
2022.2.0

> <Gold.Id.Protein>
3pbl|protein|mol2

> <Gold.Protein.RotatedTorsions>
[ 1303 1298 1297 1294 ] final -153.75 input  179.99 | X-H torsion
[ 2461 2456 2455 2452 ] final -128.51 input   30.03 | X-H torsion
[ 2515 2510 2509 2506 ] final   15.15 input  -89.99 | X-H torsion
[ 3721 3712 3711 3710 ] final   22.79 input -179.91 | X-H torsion
[ 3841 3832 3831 3830 ] final  -92.80 input -179.91 | X-H torsion
[ 3767 3762 3761 3758 ] final  -99.36 input  -89.99 | X-H torsion
[ 2472 2467 2466 2463 ] final -163.15 input  -89.97 | X-H torsion

> <Gold.Protein.ActiveResidues>
 VAL82   VAL86   LEU89   PHE106  VAL107  ASP110  VAL111  MET112  CYS114  THR115 
 CYS181  SER182  ILE183  PHE188  VAL189  ILE190  SER192  SER193  SER196  TRP342 
 PHE345  PHE346  HIS349  VAL350  TYR365  THR369  GLY372  TYR373 

> <Gold.Protein.RotatedAtoms>
    4.6492   -8.5960    4.4297 H   0  0  0  0  0  0  0  0  0  0  0  0  # atno 1303 bound_to 1298
    0.6753   -9.2241    8.1376 H   0  0  0  0  0  0  0  0  0  0  0  0  # atno 2461 bound_to 2456
   -5.1601   -5.4379    9.2167 H   0  0  0  0  0  0  0  0  0  0  0  0  # atno 2472 bound_to 2467
    2.4355   -7.4969    4.7902 H   0  0  0  0  0  0  0  0  0  0  0  0  # atno 2515 bound_to 2510
   -2.4728  -18.0330   13.9091 H   0  0  0  0  0  0  0  0  0  0  0  0  # atno 3721 bound_to 3712
   -5.1181  -21.9144   11.3228 H   0  0  0  0  0  0  0  0  0  0  0  0  # atno 3767 bound_to 3762
    1.8826  -19.6052    8.6790 H   0  0  0  0  0  0  0  0  0  0  0  0  # atno 3841 bound_to 3832
    4.3662  -10.1519    4.8362 LP  0  0  0  0  0  0  0  0  0  0  0  0  # atno 4297 bound_to 1298
    3.3466   -9.3737    3.8257 LP  0  0  0  0  0  0  0  0  0  0  0  0  # atno 4298 bound_to 1298
    2.1510   -8.5439    7.9733 LP  0  0  0  0  0  0  0  0  0  0  0  0  # atno 4299 bound_to 2456
    0.9112   -8.0403    7.0374 LP  0  0  0  0  0  0  0  0  0  0  0  0  # atno 4300 bound_to 2456
    2.7802   -9.0929    4.7886 LP  0  0  0  0  0  0  0  0  0  0  0  0  # atno 4301 bound_to 2510
    2.0810   -8.4097    6.0967 LP  0  0  0  0  0  0  0  0  0  0  0  0  # atno 4302 bound_to 2510
   -3.2887  -16.9103   14.7164 LP  0  0  0  0  0  0  0  0  0  0  0  0  # atno 4306 bound_to 3712
   -3.3840  -16.9966   13.0885 LP  0  0  0  0  0  0  0  0  0  0  0  0  # atno 4307 bound_to 3712
    3.1253  -20.6035    8.4916 LP  0  0  0  0  0  0  0  0  0  0  0  0  # atno 4314 bound_to 3832
    1.9294  -20.9547    9.5466 LP  0  0  0  0  0  0  0  0  0  0  0  0  # atno 4315 bound_to 3832
   -3.9072  -23.0008   11.1803 LP  0  0  0  0  0  0  0  0  0  0  0  0  # atno 4318 bound_to 3762
   -5.1022  -22.9596   10.0681 LP  0  0  0  0  0  0  0  0  0  0  0  0  # atno 4319 bound_to 3762
   -4.9112   -4.8659    7.7076 LP  0  0  0  0  0  0  0  0  0  0  0  0  # atno 4320 bound_to 2467
   -3.6457   -5.0897    8.7150 LP  0  0  0  0  0  0  0  0  0  0  0  0  # atno 4321 bound_to 2467

> <Gold.Score>
     Score     S(PLP)   S(hbond)     S(cho)   S(metal)  DE(clash)   DE(tors)     intcor
     48.16     -45.18       1.00       0.00       0.00       0.00       0.01       0.00

> <Gold.PLP.Fitness>
48.1598

> <Gold.PLP.PLP>
-45.1805

> <Gold.PLP.part.hbond>
-1.0000

> <Gold.PLP.part.metal>
0.0000

> <Gold.PLP.part.buried>
-5.9583

> <Gold.PLP.part.nonpolar>
-40.5571

> <Gold.PLP.part.repulsive>
1.3473

> <Gold.PLP.ligand.clash>
0.0000

> <Gold.PLP.ligand.torsion>
0.0104

> <Gold.PLP.Chemscore.Hbond>
1.0000

> <Gold.PLP.Chemscore.CHOScore>
0.0000

> <Gold.PLP.Chemscore.Metal>
0.0000

> <Gold.Chemscore.Hbonds>
donor molecule, donor type, donor heavy atom, donor atom, acceptor molecule, acceptor atom, score
      P1  H  3712  3721       L1     9  1.00

> <Gold.PLP.Chemscore.Internal.Correction>
0.0002

