#       Name:                EN300-43851_i001
#       Creating user name   fsindt
#       Creation time:       Mon Feb 27 17:50:17 2023


#       File generated by GOLD software.
#

@<TRIPOS>MOLECULE
EN300-43851_i001|acide_3|mol2|206|dock8
    23    24     1
SMALL
USER_CHARGES


@<TRIPOS>ATOM
      1 C1           0.8303 -12.7153   7.9909 C.3            1 <1>                0.0000
      2 C2           0.3195 -13.2231   9.3146 C.2            1 <1>                0.0000
      3 N3           0.5772 -14.3886   9.8594 N.2            1 <1>                0.0000
      4 N4          -0.1028 -14.4338  11.0836 N.pl3          1 <1>                0.0000
      5 N5          -0.7387 -13.3269  11.2482 N.2            1 <1>                0.0000
      6 C6          -0.5218 -12.5374  10.2102 C.2            1 <1>                0.0000
      7 C7          -1.0721 -11.1830  10.0199 C.2            1 <1>                0.0000
      8 O8          -0.7024 -10.4999   9.0751 O.co2          1 <1>                0.0000
      9 O9          -1.8981 -10.7425  10.8070 O.co2          1 <1>               -1.0000
     10 C10         -0.0923 -15.5091  11.9823 C.ar           1 <1>                0.0000
     11 C11         -0.0735 -15.2715  13.3503 C.ar           1 <1>                0.0000
     12 C12         -0.0632 -16.3323  14.2343 C.ar           1 <1>                0.0000
     13 C13         -0.0715 -17.6325  13.7573 C.ar           1 <1>                0.0000
     14 F14         -0.0617 -18.6691  14.6236 F              1 <1>                0.0000
     15 C15         -0.0901 -17.8715  12.3931 C.ar           1 <1>                0.0000
     16 C16         -0.1064 -16.8134  11.5060 C.ar           1 <1>                0.0000
     17 H17          0.1327 -12.9939   7.2012 H              1 <1>                0.0000
     18 H18          0.9215 -11.6298   8.0289 H              1 <1>                0.0000
     19 H19          1.8063 -13.1549   7.7853 H              1 <1>                0.0000
     20 H20         -0.0667 -14.2577  13.7228 H              1 <1>                0.0000
     21 H21         -0.0482 -16.1480  15.2983 H              1 <1>                0.0000
     22 H22         -0.0966 -18.8861  12.0230 H              1 <1>                0.0000
     23 H23         -0.1213 -17.0002  10.4424 H              1 <1>                0.0000
@<TRIPOS>BOND
    1    1    2 1     
    2    1   17 1     
    3    1   18 1     
    4    1   19 1     
    5    2    3 2     
    6    2    6 1     
    7    3    4 1     
    8    4    5 1     
    9    4   10 1     
   10    5    6 2     
   11    6    7 1     
   12    7    8 ar    
   13    7    9 ar    
   14   10   11 ar    
   15   10   16 ar    
   16   11   12 ar    
   17   11   20 1     
   18   12   13 ar    
   19   12   21 1     
   20   13   14 1     
   21   13   15 ar    
   22   15   16 ar    
   23   15   22 1     
   24   16   23 1     
@<TRIPOS>SUBSTRUCTURE
      1 ****           1
@<TRIPOS>COMMENT
> <Gold.Version>
2022.2.0

> <Gold.Id.Protein>
3pbl|protein|mol2

> <Gold.Protein.RotatedTorsions>
[ 1303 1298 1297 1294 ] final   78.12 input  179.99 | X-H torsion
[ 2461 2456 2455 2452 ] final -126.93 input   30.03 | X-H torsion
[ 2515 2510 2509 2506 ] final  -47.11 input  -89.99 | X-H torsion
[ 3721 3712 3711 3710 ] final  -22.59 input -179.91 | X-H torsion
[ 3841 3832 3831 3830 ] final   34.35 input -179.91 | X-H torsion
[ 3767 3762 3761 3758 ] final   14.79 input  -89.99 | X-H torsion
[ 2472 2467 2466 2463 ] final  -92.99 input  -89.97 | X-H torsion

> <Gold.Protein.ActiveResidues>
 VAL82   VAL86   LEU89   PHE106  VAL107  ASP110  VAL111  MET112  CYS114  THR115 
 CYS181  SER182  ILE183  PHE188  VAL189  ILE190  SER192  SER193  SER196  TRP342 
 PHE345  PHE346  HIS349  VAL350  TYR365  THR369  GLY372  TYR373 

> <Gold.Protein.RotatedAtoms>
    4.2572  -10.2072    4.7825 H   0  0  0  0  0  0  0  0  0  0  0  0  # atno 1303 bound_to 1298
    0.6557   -9.2158    8.1225 H   0  0  0  0  0  0  0  0  0  0  0  0  # atno 2461 bound_to 2456
   -4.0845   -5.3572    9.3209 H   0  0  0  0  0  0  0  0  0  0  0  0  # atno 2472 bound_to 2467
    2.7910   -8.2929    4.3545 H   0  0  0  0  0  0  0  0  0  0  0  0  # atno 2515 bound_to 2510
   -2.5653  -17.7769   14.5194 H   0  0  0  0  0  0  0  0  0  0  0  0  # atno 3721 bound_to 3712
   -5.1711  -22.8936   10.0800 H   0  0  0  0  0  0  0  0  0  0  0  0  # atno 3767 bound_to 3762
    2.1226  -20.8173    9.6155 H   0  0  0  0  0  0  0  0  0  0  0  0  # atno 3841 bound_to 3832
    3.3775   -9.2465    3.7978 LP  0  0  0  0  0  0  0  0  0  0  0  0  # atno 4297 bound_to 1298
    4.7274   -8.6672    4.5111 LP  0  0  0  0  0  0  0  0  0  0  0  0  # atno 4298 bound_to 1298
    2.1469   -8.5629    7.9908 LP  0  0  0  0  0  0  0  0  0  0  0  0  # atno 4299 bound_to 2456
    0.9350   -8.0297    7.0350 LP  0  0  0  0  0  0  0  0  0  0  0  0  # atno 4300 bound_to 2456
    2.4130   -9.1532    5.6897 LP  0  0  0  0  0  0  0  0  0  0  0  0  # atno 4301 bound_to 2510
    2.0926   -7.5530    5.6314 LP  0  0  0  0  0  0  0  0  0  0  0  0  # atno 4302 bound_to 2510
   -3.5391  -16.5671   14.1121 LP  0  0  0  0  0  0  0  0  0  0  0  0  # atno 4306 bound_to 3712
   -3.0270  -17.6354   12.9881 LP  0  0  0  0  0  0  0  0  0  0  0  0  # atno 4307 bound_to 3712
    1.6782  -19.6866    8.5666 LP  0  0  0  0  0  0  0  0  0  0  0  0  # atno 4314 bound_to 3832
    3.0992  -20.4716    8.3896 LP  0  0  0  0  0  0  0  0  0  0  0  0  # atno 4315 bound_to 3832
   -5.0460  -21.9212   11.3861 LP  0  0  0  0  0  0  0  0  0  0  0  0  # atno 4318 bound_to 3762
   -3.9105  -23.0604   11.1047 LP  0  0  0  0  0  0  0  0  0  0  0  0  # atno 4319 bound_to 3762
   -5.5098   -5.2297    8.5344 LP  0  0  0  0  0  0  0  0  0  0  0  0  # atno 4320 bound_to 2467
   -4.1225   -4.8067    7.7840 LP  0  0  0  0  0  0  0  0  0  0  0  0  # atno 4321 bound_to 2467

> <Gold.Score>
     Score     S(PLP)   S(hbond)     S(cho)   S(metal)  DE(clash)   DE(tors)     intcor
     42.70     -40.88       1.00       0.00       0.00       0.00       0.59       0.00

> <Gold.PLP.Fitness>
42.7023

> <Gold.PLP.PLP>
-40.8752

> <Gold.PLP.part.hbond>
-1.0000

> <Gold.PLP.part.metal>
0.0000

> <Gold.PLP.part.buried>
-6.2502

> <Gold.PLP.part.nonpolar>
-34.2938

> <Gold.PLP.part.repulsive>
0.1623

> <Gold.PLP.ligand.clash>
0.0000

> <Gold.PLP.ligand.torsion>
0.5865

> <Gold.PLP.Chemscore.Hbond>
1.0000

> <Gold.PLP.Chemscore.CHOScore>
0.0000

> <Gold.PLP.Chemscore.Metal>
0.0000

> <Gold.Chemscore.Hbonds>
donor molecule, donor type, donor heavy atom, donor atom, acceptor molecule, acceptor atom, score
      P1  H  2456  2461       L1     8  1.00

> <Gold.PLP.Chemscore.Internal.Correction>
0.0002

