#       Name:                plp ligand
#       Creating user name   fsindt
#       Creation time:       Mon Feb 27 17:50:13 2023


#       File generated by GOLD software.
#

@<TRIPOS>MOLECULE
plp ligand
    23    24     1
SMALL
USER_CHARGES


@<TRIPOS>ATOM
      1 C1           3.2433   1.8900   0.0013 NONPOLAR       1 <1>                0.0000
      2 C2           2.1116   0.8949   0.0017 NONPOLAR       1 <1>                0.0000
      3 N3           0.8281   1.1674   0.0001 ACCEPTOR       1 <1>                0.0000
      4 N4           0.1444  -0.0555   0.0012 NONPOLAR       1 <1>                0.0000
      5 N5           1.0039  -1.0136   0.0034 ACCEPTOR       1 <1>                0.0000
      6 C6           2.2253  -0.5076  -0.0023 NONPOLAR       1 <1>                0.0000
      7 C7           3.4832  -1.2764  -0.0026 NONPOLAR       1 <1>                0.0000
      8 O8           3.4526  -2.4991   0.0034 ACCEPTOR       1 <1>                0.0000
      9 O9           4.5573  -0.6915  -0.0087 ACCEPTOR       1 <1>               -1.0000
     10 C10         -1.2485  -0.2103   0.0002 NONPOLAR       1 <1>                0.0000
     11 C11         -1.8066  -1.4818   0.0015 NONPOLAR       1 <1>                0.0000
     12 C12         -3.1792  -1.6323   0.0004 NONPOLAR       1 <1>                0.0000
     13 C13         -3.9992  -0.5161  -0.0020 NONPOLAR       1 <1>                0.0000
     14 F14         -5.3419  -0.6653  -0.0027 NONPOLAR       1 <1>                0.0000
     15 C15         -3.4444   0.7530  -0.0034 NONPOLAR       1 <1>                0.0000
     16 C16         -2.0722   0.9076   0.0035 NONPOLAR       1 <1>                0.0000
     17 H17          3.5155   2.1311   1.0288                1 <1>                0.0000
     18 H18          4.1042   1.4610  -0.5115                1 <1>                0.0000
     19 H19          2.9288   2.7977  -0.5138                1 <1>                0.0000
     20 H20         -1.1676  -2.3525   0.0030                1 <1>                0.0000
     21 H21         -3.6137  -2.6210   0.0011                1 <1>                0.0000
     22 H22         -4.0854   1.6222  -0.0053                1 <1>                0.0000
     23 H23         -1.6400   1.8974   0.0028                1 <1>                0.0000
@<TRIPOS>BOND
    1    1    2 1     
    2    1   17 1     
    3    1   18 1     
    4    1   19 1     
    5    2    3 2     
    6    2    6 1     
    7    3    4 1     
    8    4    5 1     
    9    4   10 1     
   10    5    6 2     
   11    6    7 1     
   12    7    8 ar    
   13    7    9 ar    
   14   10   11 ar    
   15   10   16 ar    
   16   11   12 ar    
   17   11   20 1     
   18   12   13 ar    
   19   12   21 1     
   20   13   14 1     
   21   13   15 ar    
   22   15   16 ar    
   23   15   22 1     
   24   16   23 1     
@<TRIPOS>SUBSTRUCTURE
      1 ****           1
@<TRIPOS>SET
DONOR_HYDROGENS      STATIC     ATOMS    <user>   **** ""
0
ATOM$RED        STATIC     ATOMS    COLORGROUP SYSTEM
0
