#       Name:                EN300-53112_i001
#       Creating user name   aseyller
#       Creation time:       Fri Apr 21 17:49:19 2023


#       File generated by GOLD software.
#

@<TRIPOS>MOLECULE
EN300-53112_i001|benzaldehydes|mol2|354|dock14
    27    29     1
SMALL
USER_CHARGES


@<TRIPOS>ATOM
      1 C1          33.7492  35.7939  36.2592 C.3            1 <1>                0.0000
      2 N2          32.4554  36.4206  36.5412 N.pl3          1 <1>                0.0000
      3 C3          31.8804  37.3717  35.7923 C.2            1 <1>                0.0000
      4 C4          30.6734  37.7045  36.3814 C.2            1 <1>                0.0000
      5 C5          29.7084  38.6982  35.9062 C.2            1 <1>                0.0000
      6 O6          28.9730  39.2550  36.6945 O.2            1 <1>                0.0000
      7 C7          30.5531  36.8610  37.5788 C.2            1 <1>                0.0000
      8 N8          31.6331  36.1119  37.6282 N.2            1 <1>                0.0000
      9 C9          29.4322  36.8526  38.5395 C.2            1 <1>                0.0000
     10 C10         28.1407  37.1255  38.2323 C.2            1 <1>                0.0000
     11 C11         27.3901  36.9975  39.4832 C.ar           1 <1>                0.0000
     12 C12         26.0470  37.1471  39.8323 C.ar           1 <1>                0.0000
     13 C13         25.6577  36.9511  41.1280 C.ar           1 <1>                0.0000
     14 C14         26.5889  36.6045  42.0966 C.ar           1 <1>                0.0000
     15 C15         27.9201  36.4520  41.7712 C.ar           1 <1>                0.0000
     16 C16         28.3384  36.6463  40.4608 C.ar           1 <1>                0.0000
     17 O17         29.5391  36.5667  39.8524 O.3            1 <1>                0.0000
     18 H18         34.5419  36.3620  36.7460 H              1 <1>                0.0000
     19 H19         33.7485  34.7722  36.6392 H              1 <1>                0.0000
     20 H20         33.9197  35.7810  35.1828 H              1 <1>                0.0000
     21 H21         32.2872  37.8023  34.8894 H              1 <1>                0.0000
     22 H22         29.6513  38.9356  34.8541 H              1 <1>                0.0000
     23 H23         27.7451  37.3849  37.2614 H              1 <1>                0.0000
     24 H24         25.3185  37.4171  39.0820 H              1 <1>                0.0000
     25 H25         24.6189  37.0669  41.3995 H              1 <1>                0.0000
     26 H26         26.2676  36.4529  43.1165 H              1 <1>                0.0000
     27 H27         28.6361  36.1824  42.5334 H              1 <1>                0.0000
@<TRIPOS>BOND
    1    1    2 1     
    2    1   18 1     
    3    1   19 1     
    4    1   20 1     
    5    2    3 1     
    6    2    8 1     
    7    3    4 2     
    8    3   21 1     
    9    4    5 1     
   10    4    7 1     
   11    5    6 2     
   12    5   22 1     
   13    7    8 2     
   14    7    9 1     
   15    9   10 2     
   16    9   17 1     
   17   10   11 1     
   18   10   23 1     
   19   11   12 ar    
   20   11   16 ar    
   21   12   13 ar    
   22   12   24 1     
   23   13   14 ar    
   24   13   25 1     
   25   14   15 ar    
   26   14   26 1     
   27   15   16 ar    
   28   15   27 1     
   29   16   17 1     
@<TRIPOS>SUBSTRUCTURE
      1 ****           1
@<TRIPOS>COMMENT
> <Gold.Version>
2022.2.0

> <Gold.Id.Protein>
1qkm|1qkm_protein|mol2

> <Gold.Protein.RotatedTorsions>
[  496  491  490  487 ] final -166.06 input  -89.99 | X-H torsion

> <Gold.Protein.ActiveResidues>
 MET295  LEU298  THR299  LEU301  ALA302  GLU305  TRP335  MET336  LEU339  MET340 
 GLY342  LEU343  ARG346  PHE356  ILE373  ILE376  PHE377  LEU380  LYS471  GLY472 
 MET473  HIS475  LEU476  LEU477  ASN478  MET479  VAL484  VAL487 

> <Gold.Protein.RotatedAtoms>
   37.2947   33.6692   40.7737 H   0  0  0  0  0  0  0  0  0  0  0  0  # atno 496  bound_to 491 

> <Gold.Score>
     Score     S(PLP)   S(hbond)     S(cho)   S(metal)  DE(clash)   DE(tors)     intcor
     50.98     -52.07       0.00       0.00       0.00       0.00       0.55       0.00

> <Gold.PLP.Fitness>
50.9754

> <Gold.PLP.PLP>
-52.0712

> <Gold.PLP.part.hbond>
0.0000

> <Gold.PLP.part.metal>
0.0000

> <Gold.PLP.part.buried>
-1.7009

> <Gold.PLP.part.nonpolar>
-50.8022

> <Gold.PLP.part.repulsive>
0.1012

> <Gold.PLP.ligand.clash>
0.0000

> <Gold.PLP.ligand.torsion>
0.5479

> <Gold.PLP.Chemscore.Hbond>
0.0000

> <Gold.PLP.Chemscore.CHOScore>
0.0000

> <Gold.PLP.Chemscore.Metal>
0.0000

> <Gold.PLP.Chemscore.Internal.Correction>
0.0000

