#       Name:                EN300-53112_i001
#       Creating user name   aseyller
#       Creation time:       Fri Apr 21 17:49:18 2023


#       File generated by GOLD software.
#

@<TRIPOS>MOLECULE
EN300-53112_i001|benzaldehydes|mol2|354|dock10
    27    29     1
SMALL
USER_CHARGES


@<TRIPOS>ATOM
      1 C1          34.8772  36.3891  35.5001 C.3            1 <1>                0.0000
      2 N2          33.4810  36.7891  35.6918 N.pl3          1 <1>                0.0000
      3 C3          32.7808  37.5678  34.8554 C.2            1 <1>                0.0000
      4 C4          31.5081  37.7158  35.3778 C.2            1 <1>                0.0000
      5 C5          30.4045  38.4842  34.7983 C.2            1 <1>                0.0000
      6 O6          29.7337  39.2088  35.5035 O.2            1 <1>                0.0000
      7 C7          31.4853  36.9473  36.6303 C.2            1 <1>                0.0000
      8 N8          32.6779  36.4110  36.7711 N.2            1 <1>                0.0000
      9 C9          30.3409  36.8013  37.5516 C.2            1 <1>                0.0000
     10 C10         29.0646  37.1611  37.2718 C.2            1 <1>                0.0000
     11 C11         28.2802  36.8354  38.4648 C.ar           1 <1>                0.0000
     12 C12         26.9329  36.9595  38.8078 C.ar           1 <1>                0.0000
     13 C13         26.5068  36.5487  40.0401 C.ar           1 <1>                0.0000
     14 C14         27.4048  36.0097  40.9504 C.ar           1 <1>                0.0000
     15 C15         28.7395  35.8790  40.6298 C.ar           1 <1>                0.0000
     16 C16         29.1949  36.2899  39.3834 C.ar           1 <1>                0.0000
     17 O17         30.4080  36.2848  38.7947 O.3            1 <1>                0.0000
     18 H18         35.5330  37.1228  35.9689 H              1 <1>                0.0000
     19 H19         35.0411  35.4122  35.9552 H              1 <1>                0.0000
     20 H20         35.0964  36.3346  34.4338 H              1 <1>                0.0000
     21 H21         33.1454  38.0028  33.9367 H              1 <1>                0.0000
     22 H22         30.1875  38.4060  33.7431 H              1 <1>                0.0000
     23 H23         28.6998  37.5993  36.3545 H              1 <1>                0.0000
     24 H24         26.2302  37.3787  38.1029 H              1 <1>                0.0000
     25 H25         25.4647  36.6444  40.3069 H              1 <1>                0.0000
     26 H26         27.0546  35.6894  41.9204 H              1 <1>                0.0000
     27 H27         29.4295  35.4585  41.3464 H              1 <1>                0.0000
@<TRIPOS>BOND
    1    1    2 1     
    2    1   18 1     
    3    1   19 1     
    4    1   20 1     
    5    2    3 1     
    6    2    8 1     
    7    3    4 2     
    8    3   21 1     
    9    4    5 1     
   10    4    7 1     
   11    5    6 2     
   12    5   22 1     
   13    7    8 2     
   14    7    9 1     
   15    9   10 2     
   16    9   17 1     
   17   10   11 1     
   18   10   23 1     
   19   11   12 ar    
   20   11   16 ar    
   21   12   13 ar    
   22   12   24 1     
   23   13   14 ar    
   24   13   25 1     
   25   14   15 ar    
   26   14   26 1     
   27   15   16 ar    
   28   15   27 1     
   29   16   17 1     
@<TRIPOS>SUBSTRUCTURE
      1 ****           1
@<TRIPOS>COMMENT
> <Gold.Version>
2022.2.0

> <Gold.Id.Protein>
1qkm|1qkm_protein|mol2

> <Gold.Protein.RotatedTorsions>
[  496  491  490  487 ] final  -82.81 input  -89.99 | X-H torsion

> <Gold.Protein.ActiveResidues>
 MET295  LEU298  THR299  LEU301  ALA302  GLU305  TRP335  MET336  LEU339  MET340 
 GLY342  LEU343  ARG346  PHE356  ILE373  ILE376  PHE377  LEU380  LYS471  GLY472 
 MET473  HIS475  LEU476  LEU477  ASN478  MET479  VAL484  VAL487 

> <Gold.Protein.RotatedAtoms>
   36.6914   34.6939   41.1686 H   0  0  0  0  0  0  0  0  0  0  0  0  # atno 496  bound_to 491 

> <Gold.Score>
     Score     S(PLP)   S(hbond)     S(cho)   S(metal)  DE(clash)   DE(tors)     intcor
     52.17     -50.84       0.00       0.74       0.00       0.00       0.44       0.00

> <Gold.PLP.Fitness>
52.1675

> <Gold.PLP.PLP>
-50.8353

> <Gold.PLP.part.hbond>
0.0000

> <Gold.PLP.part.metal>
0.0000

> <Gold.PLP.part.buried>
-4.7308

> <Gold.PLP.part.nonpolar>
-46.2045

> <Gold.PLP.part.repulsive>
0.0655

> <Gold.PLP.ligand.clash>
0.0000

> <Gold.PLP.ligand.torsion>
0.4365

> <Gold.PLP.Chemscore.Hbond>
0.0000

> <Gold.PLP.Chemscore.CHOScore>
0.7351

> <Gold.PLP.Chemscore.Metal>
0.0000

> <Gold.Chemscore.Hbonds>
donor molecule, donor type, donor heavy atom, donor atom, acceptor molecule, acceptor atom, score
      L1  C     3    21       P1  3229  0.74

> <Gold.PLP.Chemscore.Internal.Correction>
0.0000

