#       Name:                EN300-53112_i001
#       Creating user name   aseyller
#       Creation time:       Fri Apr 21 17:49:19 2023


#       File generated by GOLD software.
#

@<TRIPOS>MOLECULE
EN300-53112_i001|benzaldehydes|mol2|354|dock13
    27    29     1
SMALL
USER_CHARGES


@<TRIPOS>ATOM
      1 C1          34.4103  35.7955  37.1241 C.3            1 <1>                0.0000
      2 N2          33.0399  36.3008  37.0106 N.pl3          1 <1>                0.0000
      3 C3          32.5459  36.9572  35.9517 C.2            1 <1>                0.0000
      4 C4          31.2246  37.2665  36.2220 C.2            1 <1>                0.0000
      5 C5          30.2928  37.9809  35.3469 C.2            1 <1>                0.0000
      6 O6          30.6977  38.5107  34.3332 O.2            1 <1>                0.0000
      7 C7          30.9432  36.7343  37.5627 C.2            1 <1>                0.0000
      8 N8          32.0502  36.1654  37.9879 N.2            1 <1>                0.0000
      9 C9          29.6616  36.8180  38.2908 C.2            1 <1>                0.0000
     10 C10         28.5101  37.3235  37.7856 C.2            1 <1>                0.0000
     11 C11         27.5122  37.2029  38.8506 C.ar           1 <1>                0.0000
     12 C12         26.1609  37.5347  38.9605 C.ar           1 <1>                0.0000
     13 C13         25.4945  37.2847  40.1277 C.ar           1 <1>                0.0000
     14 C14         26.1530  36.7036  41.2021 C.ar           1 <1>                0.0000
     15 C15         27.4876  36.3687  41.1126 C.ar           1 <1>                0.0000
     16 C16         28.1847  36.6137  39.9363 C.ar           1 <1>                0.0000
     17 O17         29.4602  36.3979  39.5556 O.3            1 <1>                0.0000
     18 H18         35.0448  36.5626  37.5680 H              1 <1>                0.0000
     19 H19         34.4188  34.9070  37.7555 H              1 <1>                0.0000
     20 H20         34.7869  35.5410  36.1335 H              1 <1>                0.0000
     21 H21         33.0839  37.2016  35.0478 H              1 <1>                0.0000
     22 H22         29.2452  38.0362  35.6038 H              1 <1>                0.0000
     23 H23         28.3590  37.7325  36.7975 H              1 <1>                0.0000
     24 H24         25.6440  37.9874  38.1272 H              1 <1>                0.0000
     25 H25         24.4491  37.5412  40.2143 H              1 <1>                0.0000
     26 H26         25.6145  36.5119  42.1183 H              1 <1>                0.0000
     27 H27         27.9900  35.9173  41.9553 H              1 <1>                0.0000
@<TRIPOS>BOND
    1    1    2 1     
    2    1   18 1     
    3    1   19 1     
    4    1   20 1     
    5    2    3 1     
    6    2    8 1     
    7    3    4 2     
    8    3   21 1     
    9    4    5 1     
   10    4    7 1     
   11    5    6 2     
   12    5   22 1     
   13    7    8 2     
   14    7    9 1     
   15    9   10 2     
   16    9   17 1     
   17   10   11 1     
   18   10   23 1     
   19   11   12 ar    
   20   11   16 ar    
   21   12   13 ar    
   22   12   24 1     
   23   13   14 ar    
   24   13   25 1     
   25   14   15 ar    
   26   14   26 1     
   27   15   16 ar    
   28   15   27 1     
   29   16   17 1     
@<TRIPOS>SUBSTRUCTURE
      1 ****           1
@<TRIPOS>COMMENT
> <Gold.Version>
2022.2.0

> <Gold.Id.Protein>
1qkm|1qkm_protein|mol2

> <Gold.Protein.RotatedTorsions>
[  496  491  490  487 ] final  -73.02 input  -89.99 | X-H torsion

> <Gold.Protein.ActiveResidues>
 MET295  LEU298  THR299  LEU301  ALA302  GLU305  TRP335  MET336  LEU339  MET340 
 GLY342  LEU343  ARG346  PHE356  ILE373  ILE376  PHE377  LEU380  LYS471  GLY472 
 MET473  HIS475  LEU476  LEU477  ASN478  MET479  VAL484  VAL487 

> <Gold.Protein.RotatedAtoms>
   36.6042   34.7275   41.2996 H   0  0  0  0  0  0  0  0  0  0  0  0  # atno 496  bound_to 491 

> <Gold.Score>
     Score     S(PLP)   S(hbond)     S(cho)   S(metal)  DE(clash)   DE(tors)     intcor
     50.35     -50.41       0.00       0.00       0.00       0.00       0.03       0.00

> <Gold.PLP.Fitness>
50.3486

> <Gold.PLP.PLP>
-50.4078

> <Gold.PLP.part.hbond>
0.0000

> <Gold.PLP.part.metal>
0.0000

> <Gold.PLP.part.buried>
-4.8087

> <Gold.PLP.part.nonpolar>
-46.2581

> <Gold.PLP.part.repulsive>
0.1478

> <Gold.PLP.ligand.clash>
0.0000

> <Gold.PLP.ligand.torsion>
0.0296

> <Gold.PLP.Chemscore.Hbond>
0.0000

> <Gold.PLP.Chemscore.CHOScore>
0.0000

> <Gold.PLP.Chemscore.Metal>
0.0000

> <Gold.PLP.Chemscore.Internal.Correction>
0.0000

