#       Name:                EN300-53112_i001
#       Creating user name   aseyller
#       Creation time:       Fri Apr 21 17:49:17 2023


#       File generated by GOLD software.
#

@<TRIPOS>MOLECULE
EN300-53112_i001|benzaldehydes|mol2|354|dock7
    27    29     1
SMALL
USER_CHARGES


@<TRIPOS>ATOM
      1 C1          34.9925  36.3996  35.4861 C.3            1 <1>                0.0000
      2 N2          33.5972  36.7934  35.6967 N.pl3          1 <1>                0.0000
      3 C3          32.8893  37.5877  34.8817 C.2            1 <1>                0.0000
      4 C4          31.6206  37.7231  35.4170 C.2            1 <1>                0.0000
      5 C5          30.5113  38.5012  34.8617 C.2            1 <1>                0.0000
      6 O6          29.6753  38.9784  35.6004 O.2            1 <1>                0.0000
      7 C7          31.6086  36.9294  36.6538 C.2            1 <1>                0.0000
      8 N8          32.8031  36.3924  36.7745 N.2            1 <1>                0.0000
      9 C9          30.4718  36.7629  37.5809 C.2            1 <1>                0.0000
     10 C10         30.5554  36.2474  38.8315 C.2            1 <1>                0.0000
     11 C11         29.1954  36.2759  39.3740 C.ar           1 <1>                0.0000
     12 C12         28.6236  35.8933  40.5884 C.ar           1 <1>                0.0000
     13 C13         27.2808  36.0565  40.7864 C.ar           1 <1>                0.0000
     14 C14         26.4844  36.5997  39.7884 C.ar           1 <1>                0.0000
     15 C15         27.0309  36.9837  38.5821 C.ar           1 <1>                0.0000
     16 C16         28.3930  36.8271  38.3588 C.ar           1 <1>                0.0000
     17 O17         29.1963  37.1062  37.3124 O.3            1 <1>                0.0000
     18 H18         35.6508  37.1248  35.9645 H              1 <1>                0.0000
     19 H19         35.1613  35.4141  35.9201 H              1 <1>                0.0000
     20 H20         35.2034  36.3670  34.4173 H              1 <1>                0.0000
     21 H21         33.2461  38.0417  33.9692 H              1 <1>                0.0000
     22 H22         30.4372  38.6504  33.7945 H              1 <1>                0.0000
     23 H23         31.4449  35.8882  39.3276 H              1 <1>                0.0000
     24 H24         29.2392  35.4697  41.3682 H              1 <1>                0.0000
     25 H25         26.8370  35.7606  41.7254 H              1 <1>                0.0000
     26 H26         25.4250  36.7228  39.9581 H              1 <1>                0.0000
     27 H27         26.4013  37.4050  37.8123 H              1 <1>                0.0000
@<TRIPOS>BOND
    1    1    2 1     
    2    1   18 1     
    3    1   19 1     
    4    1   20 1     
    5    2    3 1     
    6    2    8 1     
    7    3    4 2     
    8    3   21 1     
    9    4    5 1     
   10    4    7 1     
   11    5    6 2     
   12    5   22 1     
   13    7    8 2     
   14    7    9 1     
   15    9   10 2     
   16    9   17 1     
   17   10   11 1     
   18   10   23 1     
   19   11   12 ar    
   20   11   16 ar    
   21   12   13 ar    
   22   12   24 1     
   23   13   14 ar    
   24   13   25 1     
   25   14   15 ar    
   26   14   26 1     
   27   15   16 ar    
   28   15   27 1     
   29   16   17 1     
@<TRIPOS>SUBSTRUCTURE
      1 ****           1
@<TRIPOS>COMMENT
> <Gold.Version>
2022.2.0

> <Gold.Id.Protein>
1qkm|1qkm_protein|mol2

> <Gold.Protein.RotatedTorsions>
[  496  491  490  487 ] final   15.89 input  -89.99 | X-H torsion

> <Gold.Protein.ActiveResidues>
 MET295  LEU298  THR299  LEU301  ALA302  GLU305  TRP335  MET336  LEU339  MET340 
 GLY342  LEU343  ARG346  PHE356  ILE373  ILE376  PHE377  LEU380  LYS471  GLY472 
 MET473  HIS475  LEU476  LEU477  ASN478  MET479  VAL484  VAL487 

> <Gold.Protein.RotatedAtoms>
   36.2885   33.9759   42.3393 H   0  0  0  0  0  0  0  0  0  0  0  0  # atno 496  bound_to 491 

> <Gold.Score>
     Score     S(PLP)   S(hbond)     S(cho)   S(metal)  DE(clash)   DE(tors)     intcor
     54.12     -51.67       0.00       0.99       0.00       0.00       0.26       0.00

> <Gold.PLP.Fitness>
54.1177

> <Gold.PLP.PLP>
-51.6685

> <Gold.PLP.part.hbond>
0.0000

> <Gold.PLP.part.metal>
0.0000

> <Gold.PLP.part.buried>
-5.1451

> <Gold.PLP.part.nonpolar>
-46.2293

> <Gold.PLP.part.repulsive>
0.0000

> <Gold.PLP.ligand.clash>
0.0000

> <Gold.PLP.ligand.torsion>
0.2564

> <Gold.PLP.Chemscore.Hbond>
0.0000

> <Gold.PLP.Chemscore.CHOScore>
0.9873

> <Gold.PLP.Chemscore.Metal>
0.0000

> <Gold.Chemscore.Hbonds>
donor molecule, donor type, donor heavy atom, donor atom, acceptor molecule, acceptor atom, score
      L1  C     3    21       P1  3229  0.99

> <Gold.PLP.Chemscore.Internal.Correction>
0.0000

