#       Name:                EN300-53112_i001
#       Creating user name   aseyller
#       Creation time:       Fri Apr 21 17:49:20 2023


#       File generated by GOLD software.
#

@<TRIPOS>MOLECULE
EN300-53112_i001|benzaldehydes|mol2|354|dock16
    27    29     1
SMALL
USER_CHARGES


@<TRIPOS>ATOM
      1 C1          27.9353  35.5001  42.3299 C.3            1 <1>                0.0000
      2 N2          28.1178  35.9637  40.9523 N.pl3          1 <1>                0.0000
      3 C3          27.1532  36.4820  40.1795 C.2            1 <1>                0.0000
      4 C4          27.7140  36.7986  38.9548 C.2            1 <1>                0.0000
      5 C5          27.0309  37.3896  37.8022 C.2            1 <1>                0.0000
      6 O6          27.1024  38.5841  37.6016 O.2            1 <1>                0.0000
      7 C7          29.1323  36.4236  39.0422 C.2            1 <1>                0.0000
      8 N8          29.3251  35.9373  40.2490 N.2            1 <1>                0.0000
      9 C9          30.1475  36.5696  37.9803 C.2            1 <1>                0.0000
     10 C10         31.3680  35.9803  37.9829 C.2            1 <1>                0.0000
     11 C11         32.0254  36.4029  36.7444 C.ar           1 <1>                0.0000
     12 C12         33.2703  36.1477  36.1672 C.ar           1 <1>                0.0000
     13 C13         33.5879  36.7132  34.9638 C.ar           1 <1>                0.0000
     14 C14         32.6809  37.5380  34.3138 C.ar           1 <1>                0.0000
     15 C15         31.4462  37.8018  34.8681 C.ar           1 <1>                0.0000
     16 C16         31.1021  37.2380  36.0902 C.ar           1 <1>                0.0000
     17 O17         29.9971  37.3042  36.8603 O.3            1 <1>                0.0000
     18 H18         27.6625  34.4448  42.3250 H              1 <1>                0.0000
     19 H19         28.8647  35.6324  42.8839 H              1 <1>                0.0000
     20 H20         27.1431  36.0780  42.8058 H              1 <1>                0.0000
     21 H21         26.1211  36.6265  40.4625 H              1 <1>                0.0000
     22 H22         26.4635  36.7622  37.1307 H              1 <1>                0.0000
     23 H23         31.7736  35.3304  38.7443 H              1 <1>                0.0000
     24 H24         33.9799  35.5068  36.6693 H              1 <1>                0.0000
     25 H25         34.5510  36.5170  34.5161 H              1 <1>                0.0000
     26 H26         32.9449  37.9783  33.3637 H              1 <1>                0.0000
     27 H27         30.7483  38.4456  34.3535 H              1 <1>                0.0000
@<TRIPOS>BOND
    1    1    2 1     
    2    1   18 1     
    3    1   19 1     
    4    1   20 1     
    5    2    3 1     
    6    2    8 1     
    7    3    4 2     
    8    3   21 1     
    9    4    5 1     
   10    4    7 1     
   11    5    6 2     
   12    5   22 1     
   13    7    8 2     
   14    7    9 1     
   15    9   10 2     
   16    9   17 1     
   17   10   11 1     
   18   10   23 1     
   19   11   12 ar    
   20   11   16 ar    
   21   12   13 ar    
   22   12   24 1     
   23   13   14 ar    
   24   13   25 1     
   25   14   15 ar    
   26   14   26 1     
   27   15   16 ar    
   28   15   27 1     
   29   16   17 1     
@<TRIPOS>SUBSTRUCTURE
      1 ****           1
@<TRIPOS>COMMENT
> <Gold.Version>
2022.2.0

> <Gold.Id.Protein>
1qkm|1qkm_protein|mol2

> <Gold.Protein.RotatedTorsions>
[  496  491  490  487 ] final -106.01 input  -89.99 | X-H torsion

> <Gold.Protein.ActiveResidues>
 MET295  LEU298  THR299  LEU301  ALA302  GLU305  TRP335  MET336  LEU339  MET340 
 GLY342  LEU343  ARG346  PHE356  ILE373  ILE376  PHE377  LEU380  LYS471  GLY472 
 MET473  HIS475  LEU476  LEU477  ASN478  MET479  VAL484  VAL487 

> <Gold.Protein.RotatedAtoms>
   36.9045   34.5180   40.9088 H   0  0  0  0  0  0  0  0  0  0  0  0  # atno 496  bound_to 491 

> <Gold.Score>
     Score     S(PLP)   S(hbond)     S(cho)   S(metal)  DE(clash)   DE(tors)     intcor
     49.28     -50.93       0.00       0.00       0.00       0.00       0.82       0.00

> <Gold.PLP.Fitness>
49.2834

> <Gold.PLP.PLP>
-50.9299

> <Gold.PLP.part.hbond>
0.0000

> <Gold.PLP.part.metal>
0.0000

> <Gold.PLP.part.buried>
0.8994

> <Gold.PLP.part.nonpolar>
-51.6478

> <Gold.PLP.part.repulsive>
0.0961

> <Gold.PLP.ligand.clash>
0.0000

> <Gold.PLP.ligand.torsion>
0.8233

> <Gold.PLP.Chemscore.Hbond>
0.0000

> <Gold.PLP.Chemscore.CHOScore>
0.0000

> <Gold.PLP.Chemscore.Metal>
0.0000

> <Gold.PLP.Chemscore.Internal.Correction>
0.0000

