#       Name:                EN300-53112_i001
#       Creating user name   aseyller
#       Creation time:       Fri Apr 21 17:49:16 2023


#       File generated by GOLD software.
#

@<TRIPOS>MOLECULE
EN300-53112_i001|benzaldehydes|mol2|354|dock5
    27    29     1
SMALL
USER_CHARGES


@<TRIPOS>ATOM
      1 C1          33.8002  36.4025  35.1065 C.3            1 <1>                0.0000
      2 N2          32.5865  37.0374  35.6260 N.pl3          1 <1>                0.0000
      3 C3          32.0898  38.2093  35.2062 C.2            1 <1>                0.0000
      4 C4          30.9414  38.4689  35.9330 C.2            1 <1>                0.0000
      5 C5          30.0695  39.6390  35.8099 C.2            1 <1>                0.0000
      6 O6          29.1890  39.8276  36.6231 O.2            1 <1>                0.0000
      7 C7          30.7712  37.3353  36.8527 C.2            1 <1>                0.0000
      8 N8          31.7697  36.5090  36.6293 N.2            1 <1>                0.0000
      9 C9          29.6844  37.1561  37.8358 C.2            1 <1>                0.0000
     10 C10         29.8395  36.6568  39.0862 C.2            1 <1>                0.0000
     11 C11         28.5072  36.6635  39.6941 C.ar           1 <1>                0.0000
     12 C12         28.0033  36.2833  40.9389 C.ar           1 <1>                0.0000
     13 C13         26.6685  36.4210  41.2004 C.ar           1 <1>                0.0000
     14 C14         25.8132  36.9361  40.2368 C.ar           1 <1>                0.0000
     15 C15         26.2923  37.3174  39.0013 C.ar           1 <1>                0.0000
     16 C16         27.6450  37.1863  38.7135 C.ar           1 <1>                0.0000
     17 O17         28.3905  37.4699  37.6262 O.3            1 <1>                0.0000
     18 H18         34.6611  36.7360  35.6860 H              1 <1>                0.0000
     19 H19         33.7063  35.3194  35.1862 H              1 <1>                0.0000
     20 H20         33.9363  36.6796  34.0612 H              1 <1>                0.0000
     21 H21         32.5115  38.8394  34.4372 H              1 <1>                0.0000
     22 H22         30.2103  40.3340  34.9953 H              1 <1>                0.0000
     23 H23         30.7595  36.3218  39.5420 H              1 <1>                0.0000
     24 H24         28.6649  35.8814  41.6921 H              1 <1>                0.0000
     25 H25         26.2772  36.1268  42.1630 H              1 <1>                0.0000
     26 H26         24.7610  37.0393  40.4567 H              1 <1>                0.0000
     27 H27         25.6173  37.7167  38.2587 H              1 <1>                0.0000
@<TRIPOS>BOND
    1    1    2 1     
    2    1   18 1     
    3    1   19 1     
    4    1   20 1     
    5    2    3 1     
    6    2    8 1     
    7    3    4 2     
    8    3   21 1     
    9    4    5 1     
   10    4    7 1     
   11    5    6 2     
   12    5   22 1     
   13    7    8 2     
   14    7    9 1     
   15    9   10 2     
   16    9   17 1     
   17   10   11 1     
   18   10   23 1     
   19   11   12 ar    
   20   11   16 ar    
   21   12   13 ar    
   22   12   24 1     
   23   13   14 ar    
   24   13   25 1     
   25   14   15 ar    
   26   14   26 1     
   27   15   16 ar    
   28   15   27 1     
   29   16   17 1     
@<TRIPOS>SUBSTRUCTURE
      1 ****           1
@<TRIPOS>COMMENT
> <Gold.Version>
2022.2.0

> <Gold.Id.Protein>
1qkm|1qkm_protein|mol2

> <Gold.Protein.RotatedTorsions>
[  496  491  490  487 ] final  -81.54 input  -89.99 | X-H torsion

> <Gold.Protein.ActiveResidues>
 MET295  LEU298  THR299  LEU301  ALA302  GLU305  TRP335  MET336  LEU339  MET340 
 GLY342  LEU343  ARG346  PHE356  ILE373  ILE376  PHE377  LEU380  LYS471  GLY472 
 MET473  HIS475  LEU476  LEU477  ASN478  MET479  VAL484  VAL487 

> <Gold.Protein.RotatedAtoms>
   36.6798   34.6998   41.1851 H   0  0  0  0  0  0  0  0  0  0  0  0  # atno 496  bound_to 491 

> <Gold.Score>
     Score     S(PLP)   S(hbond)     S(cho)   S(metal)  DE(clash)   DE(tors)     intcor
     56.11     -57.37       0.00       0.00       0.00       0.00       0.63       0.00

> <Gold.PLP.Fitness>
56.1140

> <Gold.PLP.PLP>
-57.3712

> <Gold.PLP.part.hbond>
0.0000

> <Gold.PLP.part.metal>
0.0000

> <Gold.PLP.part.buried>
-4.4428

> <Gold.PLP.part.nonpolar>
-53.1162

> <Gold.PLP.part.repulsive>
0.0055

> <Gold.PLP.ligand.clash>
0.0000

> <Gold.PLP.ligand.torsion>
0.6286

> <Gold.PLP.Chemscore.Hbond>
0.0000

> <Gold.PLP.Chemscore.CHOScore>
0.0000

> <Gold.PLP.Chemscore.Metal>
0.0000

> <Gold.PLP.Chemscore.Internal.Correction>
0.0000

