#       Name:                EN300-53112_i001
#       Creating user name   aseyller
#       Creation time:       Fri Apr 21 17:49:19 2023


#       File generated by GOLD software.
#

@<TRIPOS>MOLECULE
EN300-53112_i001|benzaldehydes|mol2|354|dock12
    27    29     1
SMALL
USER_CHARGES


@<TRIPOS>ATOM
      1 C1          34.3492  35.5895  36.9026 C.3            1 <1>                0.0000
      2 N2          33.0057  36.1736  36.9074 N.pl3          1 <1>                0.0000
      3 C3          32.5109  36.9757  35.9545 C.2            1 <1>                0.0000
      4 C4          31.2194  37.3173  36.3151 C.2            1 <1>                0.0000
      5 C5          30.2976  38.1772  35.5701 C.2            1 <1>                0.0000
      6 O6          30.5654  38.5146  34.4357 O.2            1 <1>                0.0000
      7 C7          30.9576  36.6441  37.5950 C.2            1 <1>                0.0000
      8 N8          32.0460  35.9731  37.9033 N.2            1 <1>                0.0000
      9 C9          29.7099  36.7054  38.3817 C.2            1 <1>                0.0000
     10 C10         29.5912  36.3474  39.6835 C.2            1 <1>                0.0000
     11 C11         28.1891  36.5736  40.0405 C.ar           1 <1>                0.0000
     12 C12         27.4422  36.4044  41.2075 C.ar           1 <1>                0.0000
     13 C13         26.1116  36.7181  41.2118 C.ar           1 <1>                0.0000
     14 C14         25.5003  37.2031  40.0644 C.ar           1 <1>                0.0000
     15 C15         26.2215  37.3770  38.9021 C.ar           1 <1>                0.0000
     16 C16         27.5748  37.0648  38.8745 C.ar           1 <1>                0.0000
     17 O17         28.5194  37.1312  37.9146 O.3            1 <1>                0.0000
     18 H18         35.0409  36.2651  37.4059 H              1 <1>                0.0000
     19 H19         34.3313  34.6328  37.4247 H              1 <1>                0.0000
     20 H20         34.6750  35.4360  35.8739 H              1 <1>                0.0000
     21 H21         33.0285  37.2985  35.0634 H              1 <1>                0.0000
     22 H22         29.3793  38.5111  36.0302 H              1 <1>                0.0000
     23 H23         30.3727  35.9715  40.3273 H              1 <1>                0.0000
     24 H24         27.9133  36.0269  42.1030 H              1 <1>                0.0000
     25 H25         25.5325  36.5874  42.1139 H              1 <1>                0.0000
     26 H26         24.4484  37.4467  40.0818 H              1 <1>                0.0000
     27 H27         25.7351  37.7548  38.0148 H              1 <1>                0.0000
@<TRIPOS>BOND
    1    1    2 1     
    2    1   18 1     
    3    1   19 1     
    4    1   20 1     
    5    2    3 1     
    6    2    8 1     
    7    3    4 2     
    8    3   21 1     
    9    4    5 1     
   10    4    7 1     
   11    5    6 2     
   12    5   22 1     
   13    7    8 2     
   14    7    9 1     
   15    9   10 2     
   16    9   17 1     
   17   10   11 1     
   18   10   23 1     
   19   11   12 ar    
   20   11   16 ar    
   21   12   13 ar    
   22   12   24 1     
   23   13   14 ar    
   24   13   25 1     
   25   14   15 ar    
   26   14   26 1     
   27   15   16 ar    
   28   15   27 1     
   29   16   17 1     
@<TRIPOS>SUBSTRUCTURE
      1 ****           1
@<TRIPOS>COMMENT
> <Gold.Version>
2022.2.0

> <Gold.Id.Protein>
1qkm|1qkm_protein|mol2

> <Gold.Protein.RotatedTorsions>
[  496  491  490  487 ] final  116.77 input  -89.99 | X-H torsion

> <Gold.Protein.ActiveResidues>
 MET295  LEU298  THR299  LEU301  ALA302  GLU305  TRP335  MET336  LEU339  MET340 
 GLY342  LEU343  ARG346  PHE356  ILE373  ILE376  PHE377  LEU380  LYS471  GLY472 
 MET473  HIS475  LEU476  LEU477  ASN478  MET479  VAL484  VAL487 

> <Gold.Protein.RotatedAtoms>
   37.0551   32.9400   41.6654 H   0  0  0  0  0  0  0  0  0  0  0  0  # atno 496  bound_to 491 

> <Gold.Score>
     Score     S(PLP)   S(hbond)     S(cho)   S(metal)  DE(clash)   DE(tors)     intcor
     51.12     -51.41       0.00       0.00       0.00       0.00       0.14       0.00

> <Gold.PLP.Fitness>
51.1236

> <Gold.PLP.PLP>
-51.4097

> <Gold.PLP.part.hbond>
0.0000

> <Gold.PLP.part.metal>
0.0000

> <Gold.PLP.part.buried>
-4.4149

> <Gold.PLP.part.nonpolar>
-48.0584

> <Gold.PLP.part.repulsive>
0.0707

> <Gold.PLP.ligand.clash>
0.0000

> <Gold.PLP.ligand.torsion>
0.1431

> <Gold.PLP.Chemscore.Hbond>
0.0000

> <Gold.PLP.Chemscore.CHOScore>
0.0000

> <Gold.PLP.Chemscore.Metal>
0.0000

> <Gold.PLP.Chemscore.Internal.Correction>
0.0000

