#       Name:                EN300-53112_i001
#       Creating user name   aseyller
#       Creation time:       Fri Apr 21 17:49:16 2023


#       File generated by GOLD software.
#

@<TRIPOS>MOLECULE
EN300-53112_i001|benzaldehydes|mol2|354|dock6
    27    29     1
SMALL
USER_CHARGES


@<TRIPOS>ATOM
      1 C1          33.6360  36.3961  34.9012 C.3            1 <1>                0.0000
      2 N2          32.4601  37.0653  35.4631 N.pl3          1 <1>                0.0000
      3 C3          32.0356  38.2905  35.1244 C.2            1 <1>                0.0000
      4 C4          30.9018  38.5679  35.8675 C.2            1 <1>                0.0000
      5 C5          30.1015  39.7935  35.8249 C.2            1 <1>                0.0000
      6 O6          29.2772  40.0101  36.6885 O.2            1 <1>                0.0000
      7 C7          30.6611  37.3864  36.7077 C.2            1 <1>                0.0000
      8 N8          31.6096  36.5192  36.4282 N.2            1 <1>                0.0000
      9 C9          29.5619  37.2056  37.6766 C.2            1 <1>                0.0000
     10 C10         28.2579  37.4870  37.4369 C.2            1 <1>                0.0000
     11 C11         27.5380  37.1546  38.6682 C.ar           1 <1>                0.0000
     12 C12         26.1997  37.2152  39.0598 C.ar           1 <1>                0.0000
     13 C13         25.8435  36.8185  40.3186 C.ar           1 <1>                0.0000
     14 C14         26.8034  36.3565  41.2078 C.ar           1 <1>                0.0000
     15 C15         28.1304  36.2892  40.8392 C.ar           1 <1>                0.0000
     16 C16         28.5153  36.6872  39.5651 C.ar           1 <1>                0.0000
     17 O17         29.7040  36.7306  38.9300 O.3            1 <1>                0.0000
     18 H18         34.5130  36.6375  35.5018 H              1 <1>                0.0000
     19 H19         33.4776  35.3176  34.9067 H              1 <1>                0.0000
     20 H20         33.7923  36.7352  33.8772 H              1 <1>                0.0000
     21 H21         32.4969  38.9454  34.4001 H              1 <1>                0.0000
     22 H22         30.2450  40.5046  35.0247 H              1 <1>                0.0000
     23 H23         27.8353  37.8773  36.5229 H              1 <1>                0.0000
     24 H24         25.4489  37.5744  38.3716 H              1 <1>                0.0000
     25 H25         24.8084  36.8652  40.6232 H              1 <1>                0.0000
     26 H26         26.5081  36.0465  42.1992 H              1 <1>                0.0000
     27 H27         28.8690  35.9284  41.5396 H              1 <1>                0.0000
@<TRIPOS>BOND
    1    1    2 1     
    2    1   18 1     
    3    1   19 1     
    4    1   20 1     
    5    2    3 1     
    6    2    8 1     
    7    3    4 2     
    8    3   21 1     
    9    4    5 1     
   10    4    7 1     
   11    5    6 2     
   12    5   22 1     
   13    7    8 2     
   14    7    9 1     
   15    9   10 2     
   16    9   17 1     
   17   10   11 1     
   18   10   23 1     
   19   11   12 ar    
   20   11   16 ar    
   21   12   13 ar    
   22   12   24 1     
   23   13   14 ar    
   24   13   25 1     
   25   14   15 ar    
   26   14   26 1     
   27   15   16 ar    
   28   15   27 1     
   29   16   17 1     
@<TRIPOS>SUBSTRUCTURE
      1 ****           1
@<TRIPOS>COMMENT
> <Gold.Version>
2022.2.0

> <Gold.Id.Protein>
1qkm|1qkm_protein|mol2

> <Gold.Protein.RotatedTorsions>
[  496  491  490  487 ] final  -30.94 input  -89.99 | X-H torsion

> <Gold.Protein.ActiveResidues>
 MET295  LEU298  THR299  LEU301  ALA302  GLU305  TRP335  MET336  LEU339  MET340 
 GLY342  LEU343  ARG346  PHE356  ILE373  ILE376  PHE377  LEU380  LYS471  GLY472 
 MET473  HIS475  LEU476  LEU477  ASN478  MET479  VAL484  VAL487 

> <Gold.Protein.RotatedAtoms>
   36.3188   34.5795   41.8957 H   0  0  0  0  0  0  0  0  0  0  0  0  # atno 496  bound_to 491 

> <Gold.Score>
     Score     S(PLP)   S(hbond)     S(cho)   S(metal)  DE(clash)   DE(tors)     intcor
     55.17     -56.82       0.00       0.00       0.00       0.00       0.82       0.00

> <Gold.PLP.Fitness>
55.1673

> <Gold.PLP.PLP>
-56.8159

> <Gold.PLP.part.hbond>
0.0000

> <Gold.PLP.part.metal>
0.0000

> <Gold.PLP.part.buried>
-4.4057

> <Gold.PLP.part.nonpolar>
-53.5668

> <Gold.PLP.part.repulsive>
0.0609

> <Gold.PLP.ligand.clash>
0.0000

> <Gold.PLP.ligand.torsion>
0.8243

> <Gold.PLP.Chemscore.Hbond>
0.0000

> <Gold.PLP.Chemscore.CHOScore>
0.0000

> <Gold.PLP.Chemscore.Metal>
0.0000

> <Gold.PLP.Chemscore.Internal.Correction>
0.0000

