#       Name:                EN300-53112_i001
#       Creating user name   aseyller
#       Creation time:       Fri Apr 21 17:49:17 2023


#       File generated by GOLD software.
#

@<TRIPOS>MOLECULE
EN300-53112_i001|benzaldehydes|mol2|354|dock9
    27    29     1
SMALL
USER_CHARGES


@<TRIPOS>ATOM
      1 C1          32.0998  38.7913  33.5615 C.3            1 <1>                0.0000
      2 N2          31.8270  37.9618  34.7378 N.pl3          1 <1>                0.0000
      3 C3          32.5625  36.9111  35.1270 C.2            1 <1>                0.0000
      4 C4          31.9887  36.3926  36.2744 C.2            1 <1>                0.0000
      5 C5          32.4570  35.2403  37.0472 C.2            1 <1>                0.0000
      6 O6          32.0961  35.0933  38.1963 O.2            1 <1>                0.0000
      7 C7          30.8157  37.2297  36.5626 C.2            1 <1>                0.0000
      8 N8          30.7644  38.1510  35.6254 N.2            1 <1>                0.0000
      9 C9          29.8774  37.0700  37.6912 C.2            1 <1>                0.0000
     10 C10         28.5330  37.2234  37.6143 C.2            1 <1>                0.0000
     11 C11         28.0179  36.9706  38.9617 C.ar           1 <1>                0.0000
     12 C12         26.7443  36.9701  39.5328 C.ar           1 <1>                0.0000
     13 C13         26.5976  36.6843  40.8615 C.ar           1 <1>                0.0000
     14 C14         27.7061  36.3950  41.6445 C.ar           1 <1>                0.0000
     15 C15         28.9722  36.3905  41.0985 C.ar           1 <1>                0.0000
     16 C16         29.1450  36.6780  39.7505 C.ar           1 <1>                0.0000
     17 O17         30.2289  36.7442  38.9510 O.3            1 <1>                0.0000
     18 H18         31.5834  38.3757  32.6962 H              1 <1>                0.0000
     19 H19         31.7459  39.8063  33.7427 H              1 <1>                0.0000
     20 H20         33.1727  38.8092  33.3704 H              1 <1>                0.0000
     21 H21         33.4461  36.5357  34.6326 H              1 <1>                0.0000
     22 H22         33.1235  34.5211  36.5943 H              1 <1>                0.0000
     23 H23         27.9579  37.4801  36.7369 H              1 <1>                0.0000
     24 H24         25.8785  37.1950  38.9276 H              1 <1>                0.0000
     25 H25         25.6128  36.6839  41.3048 H              1 <1>                0.0000
     26 H26         27.5757  36.1712  42.6930 H              1 <1>                0.0000
     27 H27         29.8278  36.1643  41.7175 H              1 <1>                0.0000
@<TRIPOS>BOND
    1    1    2 1     
    2    1   18 1     
    3    1   19 1     
    4    1   20 1     
    5    2    3 1     
    6    2    8 1     
    7    3    4 2     
    8    3   21 1     
    9    4    5 1     
   10    4    7 1     
   11    5    6 2     
   12    5   22 1     
   13    7    8 2     
   14    7    9 1     
   15    9   10 2     
   16    9   17 1     
   17   10   11 1     
   18   10   23 1     
   19   11   12 ar    
   20   11   16 ar    
   21   12   13 ar    
   22   12   24 1     
   23   13   14 ar    
   24   13   25 1     
   25   14   15 ar    
   26   14   26 1     
   27   15   16 ar    
   28   15   27 1     
   29   16   17 1     
@<TRIPOS>SUBSTRUCTURE
      1 ****           1
@<TRIPOS>COMMENT
> <Gold.Version>
2022.2.0

> <Gold.Id.Protein>
1qkm|1qkm_protein|mol2

> <Gold.Protein.RotatedTorsions>
[  496  491  490  487 ] final  -64.98 input  -89.99 | X-H torsion

> <Gold.Protein.ActiveResidues>
 MET295  LEU298  THR299  LEU301  ALA302  GLU305  TRP335  MET336  LEU339  MET340 
 GLY342  LEU343  ARG346  PHE356  ILE373  ILE376  PHE377  LEU380  LYS471  GLY472 
 MET473  HIS475  LEU476  LEU477  ASN478  MET479  VAL484  VAL487 

> <Gold.Protein.RotatedAtoms>
   36.5365   34.7358   41.4130 H   0  0  0  0  0  0  0  0  0  0  0  0  # atno 496  bound_to 491 

> <Gold.Score>
     Score     S(PLP)   S(hbond)     S(cho)   S(metal)  DE(clash)   DE(tors)     intcor
     51.64     -53.05       0.00       0.00       0.00       0.00       0.70       0.00

> <Gold.PLP.Fitness>
51.6427

> <Gold.PLP.PLP>
-53.0497

> <Gold.PLP.part.hbond>
0.0000

> <Gold.PLP.part.metal>
0.0000

> <Gold.PLP.part.buried>
-4.3883

> <Gold.PLP.part.nonpolar>
-49.6225

> <Gold.PLP.part.repulsive>
0.1241

> <Gold.PLP.ligand.clash>
0.0000

> <Gold.PLP.ligand.torsion>
0.7035

> <Gold.PLP.Chemscore.Hbond>
0.0000

> <Gold.PLP.Chemscore.CHOScore>
0.0000

> <Gold.PLP.Chemscore.Metal>
0.0000

> <Gold.PLP.Chemscore.Internal.Correction>
0.0000

