#       Name:                EN300-53112_i001
#       Creating user name   aseyller
#       Creation time:       Fri Apr 21 17:49:14 2023


#       File generated by GOLD software.
#

@<TRIPOS>MOLECULE
EN300-53112_i001|benzaldehydes|mol2|354|dock2
    27    29     1
SMALL
USER_CHARGES


@<TRIPOS>ATOM
      1 C1          33.2818  36.9888  34.9773 C.3            1 <1>                0.0000
      2 N2          32.4939  36.3958  36.0607 N.pl3          1 <1>                0.0000
      3 C3          32.8080  35.2687  36.7142 C.2            1 <1>                0.0000
      4 C4          31.8255  35.0385  37.6609 C.2            1 <1>                0.0000
      5 C5          31.7590  33.9202  38.6040 C.2            1 <1>                0.0000
      6 O6          31.5257  32.7997  38.2009 O.2            1 <1>                0.0000
      7 C7          30.8624  36.1410  37.5312 C.2            1 <1>                0.0000
      8 N8          31.3051  36.9239  36.5716 N.2            1 <1>                0.0000
      9 C9          29.6354  36.3351  38.3289 C.2            1 <1>                0.0000
     10 C10         29.4982  36.0130  39.6382 C.2            1 <1>                0.0000
     11 C11         28.1282  36.3785  40.0047 C.ar           1 <1>                0.0000
     12 C12         27.3822  36.3020  41.1818 C.ar           1 <1>                0.0000
     13 C13         26.0877  36.7415  41.1934 C.ar           1 <1>                0.0000
     14 C14         25.5123  37.2626  40.0433 C.ar           1 <1>                0.0000
     15 C15         26.2333  37.3463  38.8709 C.ar           1 <1>                0.0000
     16 C16         27.5502  36.9057  38.8359 C.ar           1 <1>                0.0000
     17 O17         28.4857  36.8645  37.8656 O.3            1 <1>                0.0000
     18 H18         32.9440  36.5887  34.0214 H              1 <1>                0.0000
     19 H19         33.1524  38.0711  34.9843 H              1 <1>                0.0000
     20 H20         34.3352  36.7478  35.1203 H              1 <1>                0.0000
     21 H21         33.6743  34.6497  36.5337 H              1 <1>                0.0000
     22 H22         31.9175  34.0927  39.6583 H              1 <1>                0.0000
     23 H23         30.2476  35.5755  40.2811 H              1 <1>                0.0000
     24 H24         27.8254  35.8970  42.0796 H              1 <1>                0.0000
     25 H25         25.5092  36.6827  42.1035 H              1 <1>                0.0000
     26 H26         24.4887  37.6059  40.0665 H              1 <1>                0.0000
     27 H27         25.7750  37.7533  37.9816 H              1 <1>                0.0000
@<TRIPOS>BOND
    1    1    2 1     
    2    1   18 1     
    3    1   19 1     
    4    1   20 1     
    5    2    3 1     
    6    2    8 1     
    7    3    4 2     
    8    3   21 1     
    9    4    5 1     
   10    4    7 1     
   11    5    6 2     
   12    5   22 1     
   13    7    8 2     
   14    7    9 1     
   15    9   10 2     
   16    9   17 1     
   17   10   11 1     
   18   10   23 1     
   19   11   12 ar    
   20   11   16 ar    
   21   12   13 ar    
   22   12   24 1     
   23   13   14 ar    
   24   13   25 1     
   25   14   15 ar    
   26   14   26 1     
   27   15   16 ar    
   28   15   27 1     
   29   16   17 1     
@<TRIPOS>SUBSTRUCTURE
      1 ****           1
@<TRIPOS>COMMENT
> <Gold.Version>
2022.2.0

> <Gold.Id.Protein>
1qkm|1qkm_protein|mol2

> <Gold.Protein.RotatedTorsions>
[  496  491  490  487 ] final   44.80 input  -89.99 | X-H torsion

> <Gold.Protein.ActiveResidues>
 MET295  LEU298  THR299  LEU301  ALA302  GLU305  TRP335  MET336  LEU339  MET340 
 GLY342  LEU343  ARG346  PHE356  ILE373  ILE376  PHE377  LEU380  LYS471  GLY472 
 MET473  HIS475  LEU476  LEU477  ASN478  MET479  VAL484  VAL487 

> <Gold.Protein.RotatedAtoms>
   36.4356   33.5296   42.3702 H   0  0  0  0  0  0  0  0  0  0  0  0  # atno 496  bound_to 491 

> <Gold.Score>
     Score     S(PLP)   S(hbond)     S(cho)   S(metal)  DE(clash)   DE(tors)     intcor
     59.24     -61.54       0.00       0.00       0.00       0.00       1.15       0.00

> <Gold.PLP.Fitness>
59.2375

> <Gold.PLP.PLP>
-61.5351

> <Gold.PLP.part.hbond>
0.0000

> <Gold.PLP.part.metal>
0.0000

> <Gold.PLP.part.buried>
-5.3954

> <Gold.PLP.part.nonpolar>
-57.5518

> <Gold.PLP.part.repulsive>
0.0241

> <Gold.PLP.ligand.clash>
0.0000

> <Gold.PLP.ligand.torsion>
1.1501

> <Gold.PLP.Chemscore.Hbond>
0.0000

> <Gold.PLP.Chemscore.CHOScore>
0.0000

> <Gold.PLP.Chemscore.Metal>
0.0000

> <Gold.PLP.Chemscore.Internal.Correction>
0.0027

