#       Name:                EN300-53112_i001
#       Creating user name   aseyller
#       Creation time:       Fri Apr 21 17:49:15 2023


#       File generated by GOLD software.
#

@<TRIPOS>MOLECULE
EN300-53112_i001|benzaldehydes|mol2|354|dock3
    27    29     1
SMALL
USER_CHARGES


@<TRIPOS>ATOM
      1 C1          32.4235  37.9465  34.0383 C.3            1 <1>                0.0000
      2 N2          31.9180  37.3681  35.2857 N.pl3          1 <1>                0.0000
      3 C3          32.5814  36.4926  36.0535 C.2            1 <1>                0.0000
      4 C4          31.7786  36.1847  37.1376 C.2            1 <1>                0.0000
      5 C5          32.0978  35.2695  38.2353 C.2            1 <1>                0.0000
      6 O6          31.2045  34.7335  38.8576 O.2            1 <1>                0.0000
      7 C7          30.5418  36.9601  36.9675 C.2            1 <1>                0.0000
      8 N8          30.6741  37.6511  35.8563 N.2            1 <1>                0.0000
      9 C9          29.3760  36.9660  37.8733 C.2            1 <1>                0.0000
     10 C10         28.1658  37.5022  37.5821 C.2            1 <1>                0.0000
     11 C11         27.3279  37.2777  38.7620 C.ar           1 <1>                0.0000
     12 C12         26.0064  37.5846  39.0901 C.ar           1 <1>                0.0000
     13 C13         25.5109  37.2257  40.3126 C.ar           1 <1>                0.0000
     14 C14         26.3131  36.5589  41.2277 C.ar           1 <1>                0.0000
     15 C15         27.6209  36.2470  40.9218 C.ar           1 <1>                0.0000
     16 C16         28.1456  36.6020  39.6856 C.ar           1 <1>                0.0000
     17 O17         29.3541  36.4338  39.1115 O.3            1 <1>                0.0000
     18 H18         32.1344  37.3122  33.2003 H              1 <1>                0.0000
     19 H19         32.0018  38.9424  33.9024 H              1 <1>                0.0000
     20 H20         33.5104  38.0152  34.0840 H              1 <1>                0.0000
     21 H21         33.5675  36.0973  35.8602 H              1 <1>                0.0000
     22 H22         33.1283  35.0715  38.4911 H              1 <1>                0.0000
     23 H23         27.8777  37.9952  36.6654 H              1 <1>                0.0000
     24 H24         25.3782  38.1038  38.3814 H              1 <1>                0.0000
     25 H25         24.4887  37.4628  40.5679 H              1 <1>                0.0000
     26 H26         25.9088  36.2815  42.1899 H              1 <1>                0.0000
     27 H27         28.2362  35.7282  41.6420 H              1 <1>                0.0000
@<TRIPOS>BOND
    1    1    2 1     
    2    1   18 1     
    3    1   19 1     
    4    1   20 1     
    5    2    3 1     
    6    2    8 1     
    7    3    4 2     
    8    3   21 1     
    9    4    5 1     
   10    4    7 1     
   11    5    6 2     
   12    5   22 1     
   13    7    8 2     
   14    7    9 1     
   15    9   10 2     
   16    9   17 1     
   17   10   11 1     
   18   10   23 1     
   19   11   12 ar    
   20   11   16 ar    
   21   12   13 ar    
   22   12   24 1     
   23   13   14 ar    
   24   13   25 1     
   25   14   15 ar    
   26   14   26 1     
   27   15   16 ar    
   28   15   27 1     
   29   16   17 1     
@<TRIPOS>SUBSTRUCTURE
      1 ****           1
@<TRIPOS>COMMENT
> <Gold.Version>
2022.2.0

> <Gold.Id.Protein>
1qkm|1qkm_protein|mol2

> <Gold.Protein.RotatedTorsions>
[  496  491  490  487 ] final -138.57 input  -89.99 | X-H torsion

> <Gold.Protein.ActiveResidues>
 MET295  LEU298  THR299  LEU301  ALA302  GLU305  TRP335  MET336  LEU339  MET340 
 GLY342  LEU343  ARG346  PHE356  ILE373  ILE376  PHE377  LEU380  LYS471  GLY472 
 MET473  HIS475  LEU476  LEU477  ASN478  MET479  VAL484  VAL487 

> <Gold.Protein.RotatedAtoms>
   37.1646   34.0955   40.7260 H   0  0  0  0  0  0  0  0  0  0  0  0  # atno 496  bound_to 491 

> <Gold.Score>
     Score     S(PLP)   S(hbond)     S(cho)   S(metal)  DE(clash)   DE(tors)     intcor
     56.35     -56.75       0.00       0.00       0.00       0.00       0.20       0.00

> <Gold.PLP.Fitness>
56.3473

> <Gold.PLP.PLP>
-56.7481

> <Gold.PLP.part.hbond>
0.0000

> <Gold.PLP.part.metal>
0.0000

> <Gold.PLP.part.buried>
-4.5573

> <Gold.PLP.part.nonpolar>
-52.6894

> <Gold.PLP.part.repulsive>
0.1489

> <Gold.PLP.ligand.clash>
0.0000

> <Gold.PLP.ligand.torsion>
0.2005

> <Gold.PLP.Chemscore.Hbond>
0.0000

> <Gold.PLP.Chemscore.CHOScore>
0.0000

> <Gold.PLP.Chemscore.Metal>
0.0000

> <Gold.PLP.Chemscore.Internal.Correction>
0.0000

