#       Name:                EN300-53112_i001
#       Creating user name   aseyller
#       Creation time:       Fri Apr 21 17:49:18 2023


#       File generated by GOLD software.
#

@<TRIPOS>MOLECULE
EN300-53112_i001|benzaldehydes|mol2|354|dock11
    27    29     1
SMALL
USER_CHARGES


@<TRIPOS>ATOM
      1 C1          33.1365  37.6594  34.5632 C.3            1 <1>                0.0000
      2 N2          32.5052  36.9165  35.6567 N.pl3          1 <1>                0.0000
      3 C3          32.8875  35.7064  36.0877 C.2            1 <1>                0.0000
      4 C4          32.0516  35.3425  37.1286 C.2            1 <1>                0.0000
      5 C5          32.1008  34.0996  37.9013 C.2            1 <1>                0.0000
      6 O6          31.1303  33.7403  38.5349 O.2            1 <1>                0.0000
      7 C7          31.1051  36.4529  37.3040 C.2            1 <1>                0.0000
      8 N8          31.4178  37.3661  36.4106 N.2            1 <1>                0.0000
      9 C9          30.0150  36.5306  38.2966 C.2            1 <1>                0.0000
     10 C10         28.7215  36.8187  38.0122 C.2            1 <1>                0.0000
     11 C11         28.0076  36.7845  39.2904 C.ar           1 <1>                0.0000
     12 C12         26.6801  36.9896  39.6698 C.ar           1 <1>                0.0000
     13 C13         26.3269  36.8807  40.9860 C.ar           1 <1>                0.0000
     14 C14         27.2793  36.5677  41.9454 C.ar           1 <1>                0.0000
     15 C15         28.5955  36.3614  41.5901 C.ar           1 <1>                0.0000
     16 C16         28.9771  36.4669  40.2586 C.ar           1 <1>                0.0000
     17 O17         30.1559  36.3201  39.6204 O.3            1 <1>                0.0000
     18 H18         32.6514  37.4021  33.6216 H              1 <1>                0.0000
     19 H19         33.0340  38.7294  34.7441 H              1 <1>                0.0000
     20 H20         34.1937  37.3994  34.5102 H              1 <1>                0.0000
     21 H21         33.7031  35.1194  35.6923 H              1 <1>                0.0000
     22 H22         33.0008  33.5026  37.9072 H              1 <1>                0.0000
     23 H23         28.3021  37.0305  37.0398 H              1 <1>                0.0000
     24 H24         25.9353  37.2338  38.9268 H              1 <1>                0.0000
     25 H25         25.3003  37.0396  41.2809 H              1 <1>                0.0000
     26 H26         26.9865  36.4851  42.9816 H              1 <1>                0.0000
     27 H27         29.3283  36.1187  42.3454 H              1 <1>                0.0000
@<TRIPOS>BOND
    1    1    2 1     
    2    1   18 1     
    3    1   19 1     
    4    1   20 1     
    5    2    3 1     
    6    2    8 1     
    7    3    4 2     
    8    3   21 1     
    9    4    5 1     
   10    4    7 1     
   11    5    6 2     
   12    5   22 1     
   13    7    8 2     
   14    7    9 1     
   15    9   10 2     
   16    9   17 1     
   17   10   11 1     
   18   10   23 1     
   19   11   12 ar    
   20   11   16 ar    
   21   12   13 ar    
   22   12   24 1     
   23   13   14 ar    
   24   13   25 1     
   25   14   15 ar    
   26   14   26 1     
   27   15   16 ar    
   28   15   27 1     
   29   16   17 1     
@<TRIPOS>SUBSTRUCTURE
      1 ****           1
@<TRIPOS>COMMENT
> <Gold.Version>
2022.2.0

> <Gold.Id.Protein>
1qkm|1qkm_protein|mol2

> <Gold.Protein.RotatedTorsions>
[  496  491  490  487 ] final   10.37 input  -89.99 | X-H torsion

> <Gold.Protein.ActiveResidues>
 MET295  LEU298  THR299  LEU301  ALA302  GLU305  TRP335  MET336  LEU339  MET340 
 GLY342  LEU343  ARG346  PHE356  ILE373  ILE376  PHE377  LEU380  LYS471  GLY472 
 MET473  HIS475  LEU476  LEU477  ASN478  MET479  VAL484  VAL487 

> <Gold.Protein.RotatedAtoms>
   36.2740   34.0607   42.3099 H   0  0  0  0  0  0  0  0  0  0  0  0  # atno 496  bound_to 491 

> <Gold.Score>
     Score     S(PLP)   S(hbond)     S(cho)   S(metal)  DE(clash)   DE(tors)     intcor
     53.59     -55.59       0.00       0.00       0.00       0.00       1.00       0.00

> <Gold.PLP.Fitness>
53.5880

> <Gold.PLP.PLP>
-55.5926

> <Gold.PLP.part.hbond>
0.0000

> <Gold.PLP.part.metal>
0.0000

> <Gold.PLP.part.buried>
-1.1979

> <Gold.PLP.part.nonpolar>
-55.2461

> <Gold.PLP.part.repulsive>
0.1567

> <Gold.PLP.ligand.clash>
0.0000

> <Gold.PLP.ligand.torsion>
1.0023

> <Gold.PLP.Chemscore.Hbond>
0.0000

> <Gold.PLP.Chemscore.CHOScore>
0.0000

> <Gold.PLP.Chemscore.Metal>
0.0000

> <Gold.PLP.Chemscore.Internal.Correction>
0.0000

