#       Name:                EN300-53112_i001
#       Creating user name   aseyller
#       Creation time:       Fri Apr 21 17:49:14 2023


#       File generated by GOLD software.
#

@<TRIPOS>MOLECULE
EN300-53112_i001|benzaldehydes|mol2|354|dock1
    27    29     1
SMALL
USER_CHARGES


@<TRIPOS>ATOM
      1 C1          32.4076  38.1897  34.0199 C.3            1 <1>                0.0000
      2 N2          31.9754  37.4736  35.2227 N.pl3          1 <1>                0.0000
      3 C3          32.6429  36.4655  35.8010 C.2            1 <1>                0.0000
      4 C4          31.9193  36.0559  36.9069 C.2            1 <1>                0.0000
      5 C5          32.2709  34.9820  37.8383 C.2            1 <1>                0.0000
      6 O6          31.4014  34.4145  38.4662 O.2            1 <1>                0.0000
      7 C7          30.7275  36.9142  36.9602 C.2            1 <1>                0.0000
      8 N8          30.8083  37.7434  35.9425 N.2            1 <1>                0.0000
      9 C9          29.6487  36.8594  37.9665 C.2            1 <1>                0.0000
     10 C10         29.8138  36.5192  39.2680 C.2            1 <1>                0.0000
     11 C11         28.4863  36.6024  39.8808 C.ar           1 <1>                0.0000
     12 C12         27.9924  36.3802  41.1672 C.ar           1 <1>                0.0000
     13 C13         26.6597  36.5504  41.4201 C.ar           1 <1>                0.0000
     14 C14         25.7967  36.9425  40.4067 C.ar           1 <1>                0.0000
     15 C15         26.2659  37.1669  39.1297 C.ar           1 <1>                0.0000
     16 C16         27.6163  37.0000  38.8497 C.ar           1 <1>                0.0000
     17 O17         28.3530  37.1457  37.7298 O.3            1 <1>                0.0000
     18 H18         32.0040  37.6937  33.1372 H              1 <1>                0.0000
     19 H19         32.0438  39.2165  34.0579 H              1 <1>                0.0000
     20 H20         33.4964  38.1915  33.9698 H              1 <1>                0.0000
     21 H21         33.5794  36.0470  35.4633 H              1 <1>                0.0000
     22 H22         33.3043  34.6951  37.9665 H              1 <1>                0.0000
     23 H23         30.7375  36.2427  39.7546 H              1 <1>                0.0000
     24 H24         28.6600  36.0745  41.9592 H              1 <1>                0.0000
     25 H25         26.2761  36.3784  42.4148 H              1 <1>                0.0000
     26 H26         24.7462  37.0730  40.6204 H              1 <1>                0.0000
     27 H27         25.5850  37.4714  38.3486 H              1 <1>                0.0000
@<TRIPOS>BOND
    1    1    2 1     
    2    1   18 1     
    3    1   19 1     
    4    1   20 1     
    5    2    3 1     
    6    2    8 1     
    7    3    4 2     
    8    3   21 1     
    9    4    5 1     
   10    4    7 1     
   11    5    6 2     
   12    5   22 1     
   13    7    8 2     
   14    7    9 1     
   15    9   10 2     
   16    9   17 1     
   17   10   11 1     
   18   10   23 1     
   19   11   12 ar    
   20   11   16 ar    
   21   12   13 ar    
   22   12   24 1     
   23   13   14 ar    
   24   13   25 1     
   25   14   15 ar    
   26   14   26 1     
   27   15   16 ar    
   28   15   27 1     
   29   16   17 1     
@<TRIPOS>SUBSTRUCTURE
      1 ****           1
@<TRIPOS>COMMENT
> <Gold.Version>
2022.2.0

> <Gold.Id.Protein>
1qkm|1qkm_protein|mol2

> <Gold.Protein.RotatedTorsions>
[  496  491  490  487 ] final -130.81 input  -89.99 | X-H torsion

> <Gold.Protein.ActiveResidues>
 MET295  LEU298  THR299  LEU301  ALA302  GLU305  TRP335  MET336  LEU339  MET340 
 GLY342  LEU343  ARG346  PHE356  ILE373  ILE376  PHE377  LEU380  LYS471  GLY472 
 MET473  HIS475  LEU476  LEU477  ASN478  MET479  VAL484  VAL487 

> <Gold.Protein.RotatedAtoms>
   37.1107   34.2094   40.7469 H   0  0  0  0  0  0  0  0  0  0  0  0  # atno 496  bound_to 491 

> <Gold.Score>
     Score     S(PLP)   S(hbond)     S(cho)   S(metal)  DE(clash)   DE(tors)     intcor
     57.29     -58.43       0.00       0.00       0.00       0.00       0.57       0.01

> <Gold.PLP.Fitness>
57.2899

> <Gold.PLP.PLP>
-58.4288

> <Gold.PLP.part.hbond>
0.0000

> <Gold.PLP.part.metal>
0.0000

> <Gold.PLP.part.buried>
-3.9987

> <Gold.PLP.part.nonpolar>
-54.9654

> <Gold.PLP.part.repulsive>
0.0743

> <Gold.PLP.ligand.clash>
0.0000

> <Gold.PLP.ligand.torsion>
0.5729

> <Gold.PLP.Chemscore.Hbond>
0.0000

> <Gold.PLP.Chemscore.CHOScore>
0.0000

> <Gold.PLP.Chemscore.Metal>
0.0000

> <Gold.PLP.Chemscore.Internal.Correction>
0.0068

