#       Name:                EN300-53112_i001
#       Creating user name   aseyller
#       Creation time:       Fri Apr 21 17:49:14 2023


#       File generated by GOLD software.
#

@<TRIPOS>MOLECULE
EN300-53112_i001
    27    29     1
SMALL
USER_CHARGES


@<TRIPOS>ATOM
      1 C1           4.5411  -1.8038   0.3277 C.3            1 <1>                0.0000
      2 N2           3.4168  -0.8765   0.1786 N.pl3          1 <1>                0.0000
      3 C3           3.5284   0.4447  -0.0169 C.2            1 <1>                0.0000
      4 C4           2.2516   0.9700  -0.1085 C.2            1 <1>                0.0000
      5 C5           1.8923   2.3735  -0.3217 C.2            1 <1>                0.0000
      6 O6           2.7621   3.2116  -0.4374 O.2            1 <1>                0.0000
      7 C7           1.3282  -0.1622   0.0504 C.2            1 <1>                0.0000
      8 N8           2.0673  -1.2379   0.2130 N.2            1 <1>                0.0000
      9 C9          -0.1468  -0.1039   0.0270 C.2            1 <1>                0.0000
     10 C10         -0.9565  -1.0644  -0.4816 C.2            1 <1>                0.0000
     11 C11         -2.3265  -0.5840  -0.2894 C.ar           1 <1>                0.0000
     12 C12         -3.5892  -1.0972  -0.5901 C.ar           1 <1>                0.0000
     13 C13         -4.7068  -0.3780  -0.2698 C.ar           1 <1>                0.0000
     14 C14         -4.5931   0.8574   0.3518 C.ar           1 <1>                0.0000
     15 C15         -3.3545   1.3809   0.6569 C.ar           1 <1>                0.0000
     16 C16         -2.2052   0.6676   0.3406 C.ar           1 <1>                0.0000
     17 O17         -0.8900   0.9099   0.5134 O.3            1 <1>                0.0000
     18 H18          4.8099  -1.8825   1.3811 H              1 <1>                0.0000
     19 H19          4.2544  -2.7859  -0.0484 H              1 <1>                0.0000
     20 H20          5.3954  -1.4330  -0.2386 H              1 <1>                0.0000
     21 H21          4.4513   1.0007  -0.0897 H              1 <1>                0.0000
     22 H22          0.8531   2.6627  -0.3760 H              1 <1>                0.0000
     23 H23         -0.6528  -1.9957  -0.9365 H              1 <1>                0.0000
     24 H24         -3.6829  -2.0581  -1.0742 H              1 <1>                0.0000
     25 H25         -5.6844  -0.7737  -0.5022 H              1 <1>                0.0000
     26 H26         -5.4843   1.4150   0.5990 H              1 <1>                0.0000
     27 H27         -3.2780   2.3436   1.1404 H              1 <1>                0.0000
@<TRIPOS>BOND
    1    1    2 1     
    2    1   18 1     
    3    1   19 1     
    4    1   20 1     
    5    2    3 1     
    6    2    8 1     
    7    3    4 2     
    8    3   21 1     
    9    4    5 1     
   10    4    7 1     
   11    5    6 2     
   12    5   22 1     
   13    7    8 2     
   14    7    9 1     
   15    9   10 2     
   16    9   17 1     
   17   10   11 1     
   18   10   23 1     
   19   11   12 ar    
   20   11   16 ar    
   21   12   13 ar    
   22   12   24 1     
   23   13   14 ar    
   24   13   25 1     
   25   14   15 ar    
   26   14   26 1     
   27   15   16 ar    
   28   15   27 1     
   29   16   17 1     
@<TRIPOS>SUBSTRUCTURE
      1 ****           1
