#       Name:                EN300-53112_i001
#       Creating user name   aseyller
#       Creation time:       Fri Apr 21 17:49:21 2023


#       File generated by GOLD software.
#

@<TRIPOS>MOLECULE
EN300-53112_i001|benzaldehydes|mol2|354|dock17
    27    29     1
SMALL
USER_CHARGES


@<TRIPOS>ATOM
      1 C1          28.1866  35.5916  42.1902 C.3            1 <1>                0.0000
      2 N2          28.2379  36.1406  40.8330 N.pl3          1 <1>                0.0000
      3 C3          27.2050  36.7017  40.1892 C.2            1 <1>                0.0000
      4 C4          27.6472  37.0960  38.9388 C.2            1 <1>                0.0000
      5 C5          26.8585  37.7544  37.8953 C.2            1 <1>                0.0000
      6 O6          27.2682  38.7718  37.3762 O.2            1 <1>                0.0000
      7 C7          29.0668  36.7224  38.8674 C.2            1 <1>                0.0000
      8 N8          29.3728  36.1631  40.0178 N.2            1 <1>                0.0000
      9 C9          29.9765  36.9383  37.7249 C.2            1 <1>                0.0000
     10 C10         29.7482  37.7925  36.6978 C.2            1 <1>                0.0000
     11 C11         30.9064  37.6774  35.8090 C.ar           1 <1>                0.0000
     12 C12         31.2727  38.2799  34.6044 C.ar           1 <1>                0.0000
     13 C13         32.4576  37.9434  34.0113 C.ar           1 <1>                0.0000
     14 C14         33.2969  37.0078  34.5993 C.ar           1 <1>                0.0000
     15 C15         32.9524  36.4020  35.7891 C.ar           1 <1>                0.0000
     16 C16         31.7532  36.7286  36.4096 C.ar           1 <1>                0.0000
     17 O17         31.1612  36.3197  37.5500 O.3            1 <1>                0.0000
     18 H18         27.9128  34.5375  42.1457 H              1 <1>                0.0000
     19 H19         29.1647  35.6933  42.6605 H              1 <1>                0.0000
     20 H20         27.4443  36.1355  42.7743 H              1 <1>                0.0000
     21 H21         26.2048  36.8240  40.5774 H              1 <1>                0.0000
     22 H22         25.9122  37.3345  37.5877 H              1 <1>                0.0000
     23 H23         28.8864  38.4293  36.5622 H              1 <1>                0.0000
     24 H24         30.6227  39.0083  34.1426 H              1 <1>                0.0000
     25 H25         32.7421  38.4084  33.0790 H              1 <1>                0.0000
     26 H26         34.2299  36.7512  34.1197 H              1 <1>                0.0000
     27 H27         33.6132  35.6750  36.2374 H              1 <1>                0.0000
@<TRIPOS>BOND
    1    1    2 1     
    2    1   18 1     
    3    1   19 1     
    4    1   20 1     
    5    2    3 1     
    6    2    8 1     
    7    3    4 2     
    8    3   21 1     
    9    4    5 1     
   10    4    7 1     
   11    5    6 2     
   12    5   22 1     
   13    7    8 2     
   14    7    9 1     
   15    9   10 2     
   16    9   17 1     
   17   10   11 1     
   18   10   23 1     
   19   11   12 ar    
   20   11   16 ar    
   21   12   13 ar    
   22   12   24 1     
   23   13   14 ar    
   24   13   25 1     
   25   14   15 ar    
   26   14   26 1     
   27   15   16 ar    
   28   15   27 1     
   29   16   17 1     
@<TRIPOS>SUBSTRUCTURE
      1 ****           1
@<TRIPOS>COMMENT
> <Gold.Version>
2022.2.0

> <Gold.Id.Protein>
1qkm|1qkm_protein|mol2

> <Gold.Protein.RotatedTorsions>
[  496  491  490  487 ] final   15.86 input  -89.99 | X-H torsion

> <Gold.Protein.ActiveResidues>
 MET295  LEU298  THR299  LEU301  ALA302  GLU305  TRP335  MET336  LEU339  MET340 
 GLY342  LEU343  ARG346  PHE356  ILE373  ILE376  PHE377  LEU380  LYS471  GLY472 
 MET473  HIS475  LEU476  LEU477  ASN478  MET479  VAL484  VAL487 

> <Gold.Protein.RotatedAtoms>
   36.2885   33.9763   42.3391 H   0  0  0  0  0  0  0  0  0  0  0  0  # atno 496  bound_to 491 

> <Gold.Score>
     Score     S(PLP)   S(hbond)     S(cho)   S(metal)  DE(clash)   DE(tors)     intcor
     50.76     -51.93       0.00       0.00       0.00       0.00       0.58       0.00

> <Gold.PLP.Fitness>
50.7633

> <Gold.PLP.PLP>
-51.9327

> <Gold.PLP.part.hbond>
0.0000

> <Gold.PLP.part.metal>
0.0000

> <Gold.PLP.part.buried>
0.0223

> <Gold.PLP.part.nonpolar>
-52.4131

> <Gold.PLP.part.repulsive>
0.0991

> <Gold.PLP.ligand.clash>
0.0000

> <Gold.PLP.ligand.torsion>
0.5847

> <Gold.PLP.Chemscore.Hbond>
0.0000

> <Gold.PLP.Chemscore.CHOScore>
0.0000

> <Gold.PLP.Chemscore.Metal>
0.0000

> <Gold.PLP.Chemscore.Internal.Correction>
0.0000

