#       Name:                EN300-53112_i001
#       Creating user name   aseyller
#       Creation time:       Fri Apr 21 17:49:21 2023


#       File generated by GOLD software.
#

@<TRIPOS>MOLECULE
EN300-53112_i001|benzaldehydes|mol2|354|dock18
    27    29     1
SMALL
USER_CHARGES


@<TRIPOS>ATOM
      1 C1          31.1050  38.6428  34.1836 C.3            1 <1>                0.0000
      2 N2          30.8639  37.8716  35.4057 N.pl3          1 <1>                0.0000
      3 C3          31.6421  36.8774  35.8555 C.2            1 <1>                0.0000
      4 C4          31.0872  36.4019  37.0305 C.2            1 <1>                0.0000
      5 C5          31.6015  35.3171  37.8689 C.2            1 <1>                0.0000
      6 O6          32.5692  34.6793  37.5096 O.2            1 <1>                0.0000
      7 C7          29.8787  37.2035  37.2690 C.2            1 <1>                0.0000
      8 N8          29.7913  38.0662  36.2801 N.2            1 <1>                0.0000
      9 C9          28.9444  37.0693  38.4042 C.2            1 <1>                0.0000
     10 C10         29.2921  36.6941  39.6592 C.2            1 <1>                0.0000
     11 C11         28.0545  36.6999  40.4421 C.ar           1 <1>                0.0000
     12 C12         27.7428  36.4145  41.7724 C.ar           1 <1>                0.0000
     13 C13         26.4494  36.5188  42.2027 C.ar           1 <1>                0.0000
     14 C14         25.4463  36.9064  41.3257 C.ar           1 <1>                0.0000
     15 C15         25.7346  37.1925  40.0080 C.ar           1 <1>                0.0000
     16 C16         27.0419  37.0932  39.5488 C.ar           1 <1>                0.0000
     17 O17         27.6189  37.3072  38.3490 O.3            1 <1>                0.0000
     18 H18         30.6096  38.1563  33.3434 H              1 <1>                0.0000
     19 H19         30.7077  39.6505  34.3057 H              1 <1>                0.0000
     20 H20         32.1768  38.6953  33.9927 H              1 <1>                0.0000
     21 H21         32.5425  36.5122  35.3843 H              1 <1>                0.0000
     22 H22         31.1196  35.0847  38.8071 H              1 <1>                0.0000
     23 H23         30.2817  36.4418  40.0108 H              1 <1>                0.0000
     24 H24         28.5200  36.1121  42.4587 H              1 <1>                0.0000
     25 H25         26.2068  36.2980  43.2316 H              1 <1>                0.0000
     26 H26         24.4287  36.9844  41.6790 H              1 <1>                0.0000
     27 H27         24.9457  37.4928  39.3343 H              1 <1>                0.0000
@<TRIPOS>BOND
    1    1    2 1     
    2    1   18 1     
    3    1   19 1     
    4    1   20 1     
    5    2    3 1     
    6    2    8 1     
    7    3    4 2     
    8    3   21 1     
    9    4    5 1     
   10    4    7 1     
   11    5    6 2     
   12    5   22 1     
   13    7    8 2     
   14    7    9 1     
   15    9   10 2     
   16    9   17 1     
   17   10   11 1     
   18   10   23 1     
   19   11   12 ar    
   20   11   16 ar    
   21   12   13 ar    
   22   12   24 1     
   23   13   14 ar    
   24   13   25 1     
   25   14   15 ar    
   26   14   26 1     
   27   15   16 ar    
   28   15   27 1     
   29   16   17 1     
@<TRIPOS>SUBSTRUCTURE
      1 ****           1
@<TRIPOS>COMMENT
> <Gold.Version>
2022.2.0

> <Gold.Id.Protein>
1qkm|1qkm_protein|mol2

> <Gold.Protein.RotatedTorsions>
[  496  491  490  487 ] final  104.95 input  -89.99 | X-H torsion

> <Gold.Protein.ActiveResidues>
 MET295  LEU298  THR299  LEU301  ALA302  GLU305  TRP335  MET336  LEU339  MET340 
 GLY342  LEU343  ARG346  PHE356  ILE373  ILE376  PHE377  LEU380  LYS471  GLY472 
 MET473  HIS475  LEU476  LEU477  ASN478  MET479  VAL484  VAL487 

> <Gold.Protein.RotatedAtoms>
   36.9557   32.9526   41.8317 H   0  0  0  0  0  0  0  0  0  0  0  0  # atno 496  bound_to 491 

> <Gold.Score>
     Score     S(PLP)   S(hbond)     S(cho)   S(metal)  DE(clash)   DE(tors)     intcor
     49.00     -49.87       0.00       0.00       0.00       0.00       0.44       0.00

> <Gold.PLP.Fitness>
48.9960

> <Gold.PLP.PLP>
-49.8707

> <Gold.PLP.part.hbond>
0.0000

> <Gold.PLP.part.metal>
0.0000

> <Gold.PLP.part.buried>
1.1739

> <Gold.PLP.part.nonpolar>
-51.5565

> <Gold.PLP.part.repulsive>
0.0175

> <Gold.PLP.ligand.clash>
0.0000

> <Gold.PLP.ligand.torsion>
0.4373

> <Gold.PLP.Chemscore.Hbond>
0.0000

> <Gold.PLP.Chemscore.CHOScore>
0.0000

> <Gold.PLP.Chemscore.Metal>
0.0000

> <Gold.PLP.Chemscore.Internal.Correction>
0.0000

