#       Name:                EN300-53112_i001
#       Creating user name   aseyller
#       Creation time:       Fri Apr 21 17:49:20 2023


#       File generated by GOLD software.
#

@<TRIPOS>MOLECULE
EN300-53112_i001|benzaldehydes|mol2|354|dock15
    27    29     1
SMALL
USER_CHARGES


@<TRIPOS>ATOM
      1 C1          25.5469  36.1661  41.2244 C.3            1 <1>                0.0000
      2 N2          26.3756  36.6732  40.1279 N.pl3          1 <1>                0.0000
      3 C3          26.0174  37.6447  39.2770 C.2            1 <1>                0.0000
      4 C4          27.0618  37.8396  38.3906 C.2            1 <1>                0.0000
      5 C5          27.1108  38.8028  37.2887 C.2            1 <1>                0.0000
      6 O6          28.1811  39.1937  36.8717 O.2            1 <1>                0.0000
      7 C7          28.1124  36.8871  38.7764 C.2            1 <1>                0.0000
      8 N8          27.6604  36.2205  39.8162 N.2            1 <1>                0.0000
      9 C9          29.4258  36.7150  38.1246 C.2            1 <1>                0.0000
     10 C10         30.4682  36.0215  38.6435 C.2            1 <1>                0.0000
     11 C11         31.5497  36.1184  37.6608 C.ar           1 <1>                0.0000
     12 C12         32.8561  35.6308  37.5998 C.ar           1 <1>                0.0000
     13 C13         33.6323  35.9075  36.5090 C.ar           1 <1>                0.0000
     14 C14         33.1294  36.6689  35.4636 C.ar           1 <1>                0.0000
     15 C15         31.8413  37.1592  35.5056 C.ar           1 <1>                0.0000
     16 C16         31.0346  36.8906  36.6042 C.ar           1 <1>                0.0000
     17 O17         29.7659  37.2192  36.9218 O.3            1 <1>                0.0000
     18 H18         24.9359  35.3380  40.8651 H              1 <1>                0.0000
     19 H19         26.1885  35.8194  42.0344 H              1 <1>                0.0000
     20 H20         24.8996  36.9635  41.5894 H              1 <1>                0.0000
     21 H21         25.0796  38.1802  39.2821 H              1 <1>                0.0000
     22 H22         26.1942  39.1653  36.8471 H              1 <1>                0.0000
     23 H23         30.4957  35.5023  39.5902 H              1 <1>                0.0000
     24 H24         33.2523  35.0381  38.4110 H              1 <1>                0.0000
     25 H25         34.6434  35.5312  36.4606 H              1 <1>                0.0000
     26 H26         33.7536  36.8800  34.6080 H              1 <1>                0.0000
     27 H27         31.4605  37.7510  34.6864 H              1 <1>                0.0000
@<TRIPOS>BOND
    1    1    2 1     
    2    1   18 1     
    3    1   19 1     
    4    1   20 1     
    5    2    3 1     
    6    2    8 1     
    7    3    4 2     
    8    3   21 1     
    9    4    5 1     
   10    4    7 1     
   11    5    6 2     
   12    5   22 1     
   13    7    8 2     
   14    7    9 1     
   15    9   10 2     
   16    9   17 1     
   17   10   11 1     
   18   10   23 1     
   19   11   12 ar    
   20   11   16 ar    
   21   12   13 ar    
   22   12   24 1     
   23   13   14 ar    
   24   13   25 1     
   25   14   15 ar    
   26   14   26 1     
   27   15   16 ar    
   28   15   27 1     
   29   16   17 1     
@<TRIPOS>SUBSTRUCTURE
      1 ****           1
@<TRIPOS>COMMENT
> <Gold.Version>
2022.2.0

> <Gold.Id.Protein>
1qkm|1qkm_protein|mol2

> <Gold.Protein.RotatedTorsions>
[  496  491  490  487 ] final -150.83 input  -89.99 | X-H torsion

> <Gold.Protein.ActiveResidues>
 MET295  LEU298  THR299  LEU301  ALA302  GLU305  TRP335  MET336  LEU339  MET340 
 GLY342  LEU343  ARG346  PHE356  ILE373  ILE376  PHE377  LEU380  LYS471  GLY472 
 MET473  HIS475  LEU476  LEU477  ASN478  MET479  VAL484  VAL487 

> <Gold.Protein.RotatedAtoms>
   37.2354   33.9069   40.7239 H   0  0  0  0  0  0  0  0  0  0  0  0  # atno 496  bound_to 491 

> <Gold.Score>
     Score     S(PLP)   S(hbond)     S(cho)   S(metal)  DE(clash)   DE(tors)     intcor
     52.33     -52.74       0.00       0.00       0.00       0.00       0.21       0.00

> <Gold.PLP.Fitness>
52.3262

> <Gold.PLP.PLP>
-52.7423

> <Gold.PLP.part.hbond>
0.0000

> <Gold.PLP.part.metal>
0.0000

> <Gold.PLP.part.buried>
-3.1954

> <Gold.PLP.part.nonpolar>
-49.9648

> <Gold.PLP.part.repulsive>
0.0231

> <Gold.PLP.ligand.clash>
0.0000

> <Gold.PLP.ligand.torsion>
0.2080

> <Gold.PLP.Chemscore.Hbond>
0.0000

> <Gold.PLP.Chemscore.CHOScore>
0.0000

> <Gold.PLP.Chemscore.Metal>
0.0000

> <Gold.PLP.Chemscore.Internal.Correction>
0.0000

