#       Name:                EN300-53112_i001
#       Creating user name   aseyller
#       Creation time:       Fri Apr 21 17:49:22 2023


#       File generated by GOLD software.
#

@<TRIPOS>MOLECULE
EN300-53112_i001|benzaldehydes|mol2|354|dock20
    27    29     1
SMALL
USER_CHARGES


@<TRIPOS>ATOM
      1 C1          31.8699  39.1530  33.4010 C.3            1 <1>                0.0000
      2 N2          31.6007  38.4418  34.6531 N.pl3          1 <1>                0.0000
      3 C3          32.5054  37.7417  35.3514 C.2            1 <1>                0.0000
      4 C4          31.8721  37.2224  36.4667 C.2            1 <1>                0.0000
      5 C5          32.4742  36.3919  37.5118 C.2            1 <1>                0.0000
      6 O6          33.5255  35.8228  37.3040 O.2            1 <1>                0.0000
      7 C7          30.4747  37.6714  36.3931 C.2            1 <1>                0.0000
      8 N8          30.3636  38.3966  35.3015 N.2            1 <1>                0.0000
      9 C9          29.4021  37.3701  37.3618 C.2            1 <1>                0.0000
     10 C10         28.1260  37.8185  37.2757 C.2            1 <1>                0.0000
     11 C11         27.4250  37.2740  38.4405 C.ar           1 <1>                0.0000
     12 C12         26.1169  37.3638  38.9190 C.ar           1 <1>                0.0000
     13 C13         25.7717  36.7172  40.0730 C.ar           1 <1>                0.0000
     14 C14         26.7130  35.9732  40.7701 C.ar           1 <1>                0.0000
     15 C15         28.0100  35.8726  40.3131 C.ar           1 <1>                0.0000
     16 C16         28.3833  36.5213  39.1428 C.ar           1 <1>                0.0000
     17 O17         29.5438  36.6032  38.4611 O.3            1 <1>                0.0000
     18 H18         31.6935  38.4845  32.5583 H              1 <1>                0.0000
     19 H19         31.2089  40.0164  33.3242 H              1 <1>                0.0000
     20 H20         32.9072  39.4873  33.3888 H              1 <1>                0.0000
     21 H21         33.5444  37.6065  35.0898 H              1 <1>                0.0000
     22 H22         31.9825  36.2859  38.4676 H              1 <1>                0.0000
     23 H23         27.7103  38.4496  36.5041 H              1 <1>                0.0000
     24 H24         25.3808  37.9420  38.3803 H              1 <1>                0.0000
     25 H25         24.7600  36.7861  40.4446 H              1 <1>                0.0000
     26 H26         26.4267  35.4677  41.6804 H              1 <1>                0.0000
     27 H27         28.7344  35.2911  40.8641 H              1 <1>                0.0000
@<TRIPOS>BOND
    1    1    2 1     
    2    1   18 1     
    3    1   19 1     
    4    1   20 1     
    5    2    3 1     
    6    2    8 1     
    7    3    4 2     
    8    3   21 1     
    9    4    5 1     
   10    4    7 1     
   11    5    6 2     
   12    5   22 1     
   13    7    8 2     
   14    7    9 1     
   15    9   10 2     
   16    9   17 1     
   17   10   11 1     
   18   10   23 1     
   19   11   12 ar    
   20   11   16 ar    
   21   12   13 ar    
   22   12   24 1     
   23   13   14 ar    
   24   13   25 1     
   25   14   15 ar    
   26   14   26 1     
   27   15   16 ar    
   28   15   27 1     
   29   16   17 1     
@<TRIPOS>SUBSTRUCTURE
      1 ****           1
@<TRIPOS>COMMENT
> <Gold.Version>
2022.2.0

> <Gold.Id.Protein>
1qkm|1qkm_protein|mol2

> <Gold.Protein.RotatedTorsions>
[  496  491  490  487 ] final  143.79 input  -89.99 | X-H torsion

> <Gold.Protein.ActiveResidues>
 MET295  LEU298  THR299  LEU301  ALA302  GLU305  TRP335  MET336  LEU339  MET340 
 GLY342  LEU343  ARG346  PHE356  ILE373  ILE376  PHE377  LEU380  LYS471  GLY472 
 MET473  HIS475  LEU476  LEU477  ASN478  MET479  VAL484  VAL487 

> <Gold.Protein.RotatedAtoms>
   37.2342   33.0524   41.2787 H   0  0  0  0  0  0  0  0  0  0  0  0  # atno 496  bound_to 491 

> <Gold.Score>
     Score     S(PLP)   S(hbond)     S(cho)   S(metal)  DE(clash)   DE(tors)     intcor
     48.96     -49.11       0.00       0.00       0.00       0.00       0.07       0.00

> <Gold.PLP.Fitness>
48.9615

> <Gold.PLP.PLP>
-49.1078

> <Gold.PLP.part.hbond>
0.0000

> <Gold.PLP.part.metal>
0.0000

> <Gold.PLP.part.buried>
-4.2651

> <Gold.PLP.part.nonpolar>
-45.6454

> <Gold.PLP.part.repulsive>
0.0290

> <Gold.PLP.ligand.clash>
0.0000

> <Gold.PLP.ligand.torsion>
0.0732

> <Gold.PLP.Chemscore.Hbond>
0.0000

> <Gold.PLP.Chemscore.CHOScore>
0.0000

> <Gold.PLP.Chemscore.Metal>
0.0000

> <Gold.PLP.Chemscore.Internal.Correction>
0.0000

