#       Name:                EN300-53112_i001
#       Creating user name   aseyller
#       Creation time:       Fri Apr 21 17:49:17 2023


#       File generated by GOLD software.
#

@<TRIPOS>MOLECULE
EN300-53112_i001|benzaldehydes|mol2|354|dock8
    27    29     1
SMALL
USER_CHARGES


@<TRIPOS>ATOM
      1 C1          31.8307  39.0284  33.4026 C.3            1 <1>                0.0000
      2 N2          31.6394  38.2681  34.6402 N.pl3          1 <1>                0.0000
      3 C3          32.5401  37.4352  35.1798 C.2            1 <1>                0.0000
      4 C4          31.9940  36.9116  36.3384 C.2            1 <1>                0.0000
      5 C5          32.6239  35.9576  37.2534 C.2            1 <1>                0.0000
      6 O6          33.7162  35.4977  36.9928 O.2            1 <1>                0.0000
      7 C7          30.6556  37.5049  36.4673 C.2            1 <1>                0.0000
      8 N8          30.4928  38.3073  35.4381 N.2            1 <1>                0.0000
      9 C9          29.6821  37.2521  37.5481 C.2            1 <1>                0.0000
     10 C10         30.0008  36.8919  38.8152 C.2            1 <1>                0.0000
     11 C11         28.7300  36.7532  39.5296 C.ar           1 <1>                0.0000
     12 C12         28.3805  36.4118  40.8370 C.ar           1 <1>                0.0000
     13 C13         27.0624  36.3717  41.1976 C.ar           1 <1>                0.0000
     14 C14         26.0716  36.6683  40.2725 C.ar           1 <1>                0.0000
     15 C15         26.3971  37.0078  38.9763 C.ar           1 <1>                0.0000
     16 C16         27.7300  37.0549  38.5877 C.ar           1 <1>                0.0000
     17 O17         28.3436  37.3506  37.4239 O.3            1 <1>                0.0000
     18 H18         31.4811  38.4378  32.5557 H              1 <1>                0.0000
     19 H19         31.2639  39.9579  33.4559 H              1 <1>                0.0000
     20 H20         32.8892  39.2550  33.2754 H              1 <1>                0.0000
     21 H21         33.5185  37.2120  34.7809 H              1 <1>                0.0000
     22 H22         32.1164  35.6632  38.1602 H              1 <1>                0.0000
     23 H23         30.9916  36.7383  39.2168 H              1 <1>                0.0000
     24 H24         29.1480  36.1797  41.5606 H              1 <1>                0.0000
     25 H25         26.7905  36.1073  42.2087 H              1 <1>                0.0000
     26 H26         25.0343  36.6326  40.5708 H              1 <1>                0.0000
     27 H27         25.6176  37.2364  38.2647 H              1 <1>                0.0000
@<TRIPOS>BOND
    1    1    2 1     
    2    1   18 1     
    3    1   19 1     
    4    1   20 1     
    5    2    3 1     
    6    2    8 1     
    7    3    4 2     
    8    3   21 1     
    9    4    5 1     
   10    4    7 1     
   11    5    6 2     
   12    5   22 1     
   13    7    8 2     
   14    7    9 1     
   15    9   10 2     
   16    9   17 1     
   17   10   11 1     
   18   10   23 1     
   19   11   12 ar    
   20   11   16 ar    
   21   12   13 ar    
   22   12   24 1     
   23   13   14 ar    
   24   13   25 1     
   25   14   15 ar    
   26   14   26 1     
   27   15   16 ar    
   28   15   27 1     
   29   16   17 1     
@<TRIPOS>SUBSTRUCTURE
      1 ****           1
@<TRIPOS>COMMENT
> <Gold.Version>
2022.2.0

> <Gold.Id.Protein>
1qkm|1qkm_protein|mol2

> <Gold.Protein.RotatedTorsions>
[  496  491  490  487 ] final  -47.26 input  -89.99 | X-H torsion

> <Gold.Protein.ActiveResidues>
 MET295  LEU298  THR299  LEU301  ALA302  GLU305  TRP335  MET336  LEU339  MET340 
 GLY342  LEU343  ARG346  PHE356  ILE373  ILE376  PHE377  LEU380  LYS471  GLY472 
 MET473  HIS475  LEU476  LEU477  ASN478  MET479  VAL484  VAL487 

> <Gold.Protein.RotatedAtoms>
   36.4066   34.6919   41.6692 H   0  0  0  0  0  0  0  0  0  0  0  0  # atno 496  bound_to 491 

> <Gold.Score>
     Score     S(PLP)   S(hbond)     S(cho)   S(metal)  DE(clash)   DE(tors)     intcor
     51.52     -52.17       0.00       0.00       0.00       0.00       0.33       0.00

> <Gold.PLP.Fitness>
51.5192

> <Gold.PLP.PLP>
-52.1717

> <Gold.PLP.part.hbond>
0.0000

> <Gold.PLP.part.metal>
0.0000

> <Gold.PLP.part.buried>
-3.8833

> <Gold.PLP.part.nonpolar>
-48.8681

> <Gold.PLP.part.repulsive>
0.0035

> <Gold.PLP.ligand.clash>
0.0000

> <Gold.PLP.ligand.torsion>
0.3263

> <Gold.PLP.Chemscore.Hbond>
0.0000

> <Gold.PLP.Chemscore.CHOScore>
0.0000

> <Gold.PLP.Chemscore.Metal>
0.0000

> <Gold.PLP.Chemscore.Internal.Correction>
0.0000

