#       Name:                EN300-53112_i001
#       Creating user name   aseyller
#       Creation time:       Fri Apr 21 17:49:22 2023


#       File generated by GOLD software.
#

@<TRIPOS>MOLECULE
EN300-53112_i001|benzaldehydes|mol2|354|dock19
    27    29     1
SMALL
USER_CHARGES


@<TRIPOS>ATOM
      1 C1          33.5974  35.8037  36.0917 C.3            1 <1>                0.0000
      2 N2          32.4379  36.5529  36.5821 N.pl3          1 <1>                0.0000
      3 C3          32.0683  37.7680  36.1539 C.2            1 <1>                0.0000
      4 C4          30.9321  38.1370  36.8520 C.2            1 <1>                0.0000
      5 C5          30.1813  39.3863  36.7108 C.2            1 <1>                0.0000
      6 O6          30.5997  40.2673  35.9888 O.2            1 <1>                0.0000
      7 C7          30.6290  37.0244  37.7630 C.2            1 <1>                0.0000
      8 N8          31.5481  36.1053  37.5623 N.2            1 <1>                0.0000
      9 C9          29.5050  36.9505  38.7173 C.2            1 <1>                0.0000
     10 C10         29.6185  36.6429  40.0324 C.2            1 <1>                0.0000
     11 C11         28.2606  36.6900  40.5789 C.ar           1 <1>                0.0000
     12 C12         27.7127  36.4758  41.8446 C.ar           1 <1>                0.0000
     13 C13         26.3641  36.6022  42.0295 C.ar           1 <1>                0.0000
     14 C14         25.5381  36.9419  40.9675 C.ar           1 <1>                0.0000
     15 C15         26.0607  37.1575  39.7098 C.ar           1 <1>                0.0000
     16 C16         27.4282  37.0345  39.4987 C.ar           1 <1>                0.0000
     17 O17         28.2131  37.1844  38.4125 O.3            1 <1>                0.0000
     18 H18         34.4713  36.0515  36.6941 H              1 <1>                0.0000
     19 H19         33.3968  34.7348  36.1650 H              1 <1>                0.0000
     20 H20         33.7866  36.0674  35.0512 H              1 <1>                0.0000
     21 H21         32.5688  38.3550  35.3982 H              1 <1>                0.0000
     22 H22         29.2552  39.5237  37.2492 H              1 <1>                0.0000
     23 H23         30.5266  36.4104  40.5688 H              1 <1>                0.0000
     24 H24         28.3514  36.2109  42.6743 H              1 <1>                0.0000
     25 H25         25.9388  36.4365  43.0082 H              1 <1>                0.0000
     26 H26         24.4745  37.0382  41.1276 H              1 <1>                0.0000
     27 H27         25.4083  37.4210  38.8905 H              1 <1>                0.0000
@<TRIPOS>BOND
    1    1    2 1     
    2    1   18 1     
    3    1   19 1     
    4    1   20 1     
    5    2    3 1     
    6    2    8 1     
    7    3    4 2     
    8    3   21 1     
    9    4    5 1     
   10    4    7 1     
   11    5    6 2     
   12    5   22 1     
   13    7    8 2     
   14    7    9 1     
   15    9   10 2     
   16    9   17 1     
   17   10   11 1     
   18   10   23 1     
   19   11   12 ar    
   20   11   16 ar    
   21   12   13 ar    
   22   12   24 1     
   23   13   14 ar    
   24   13   25 1     
   25   14   15 ar    
   26   14   26 1     
   27   15   16 ar    
   28   15   27 1     
   29   16   17 1     
@<TRIPOS>SUBSTRUCTURE
      1 ****           1
@<TRIPOS>COMMENT
> <Gold.Version>
2022.2.0

> <Gold.Id.Protein>
1qkm|1qkm_protein|mol2

> <Gold.Protein.RotatedTorsions>
[  496  491  490  487 ] final   41.87 input  -89.99 | X-H torsion

> <Gold.Protein.ActiveResidues>
 MET295  LEU298  THR299  LEU301  ALA302  GLU305  TRP335  MET336  LEU339  MET340 
 GLY342  LEU343  ARG346  PHE356  ILE373  ILE376  PHE377  LEU380  LYS471  GLY472 
 MET473  HIS475  LEU476  LEU477  ASN478  MET479  VAL484  VAL487 

> <Gold.Protein.RotatedAtoms>
   36.4158   33.5732   42.3767 H   0  0  0  0  0  0  0  0  0  0  0  0  # atno 496  bound_to 491 

> <Gold.Score>
     Score     S(PLP)   S(hbond)     S(cho)   S(metal)  DE(clash)   DE(tors)     intcor
     51.29     -53.12       0.00       0.00       0.00       0.00       0.91       0.00

> <Gold.PLP.Fitness>
51.2917

> <Gold.PLP.PLP>
-53.1162

> <Gold.PLP.part.hbond>
0.0000

> <Gold.PLP.part.metal>
0.0000

> <Gold.PLP.part.buried>
-0.7886

> <Gold.PLP.part.nonpolar>
-52.6634

> <Gold.PLP.part.repulsive>
0.0179

> <Gold.PLP.ligand.clash>
0.0000

> <Gold.PLP.ligand.torsion>
0.9123

> <Gold.PLP.Chemscore.Hbond>
0.0000

> <Gold.PLP.Chemscore.CHOScore>
0.0000

> <Gold.PLP.Chemscore.Metal>
0.0000

> <Gold.PLP.Chemscore.Internal.Correction>
0.0000

