#       Name:                EN300-53112_i001
#       Creating user name   aseyller
#       Creation time:       Fri Apr 21 17:49:15 2023


#       File generated by GOLD software.
#

@<TRIPOS>MOLECULE
EN300-53112_i001|benzaldehydes|mol2|354|dock4
    27    29     1
SMALL
USER_CHARGES


@<TRIPOS>ATOM
      1 C1          33.5048  36.8320  34.9094 C.3            1 <1>                0.0000
      2 N2          32.6591  36.2842  35.9729 N.pl3          1 <1>                0.0000
      3 C3          32.9487  35.2004  36.7063 C.2            1 <1>                0.0000
      4 C4          31.9119  35.0037  37.6013 C.2            1 <1>                0.0000
      5 C5          31.8031  33.9374  38.5991 C.2            1 <1>                0.0000
      6 O6          31.4746  32.8198  38.2593 O.2            1 <1>                0.0000
      7 C7          30.9421  36.0791  37.3508 C.2            1 <1>                0.0000
      8 N8          31.4325  36.8168  36.3786 N.2            1 <1>                0.0000
      9 C9          29.6643  36.2933  38.0585 C.2            1 <1>                0.0000
     10 C10         28.6719  37.1174  37.6426 C.2            1 <1>                0.0000
     11 C11         27.6098  37.0119  38.6452 C.ar           1 <1>                0.0000
     12 C12         26.3507  37.5955  38.7946 C.ar           1 <1>                0.0000
     13 C13         25.5801  37.2765  39.8778 C.ar           1 <1>                0.0000
     14 C14         26.0419  36.3769  40.8281 C.ar           1 <1>                0.0000
     15 C15         27.2828  35.7900  40.6978 C.ar           1 <1>                0.0000
     16 C16         28.0830  36.0995  39.6053 C.ar           1 <1>                0.0000
     17 O17         29.3075  35.6943  39.2120 O.3            1 <1>                0.0000
     18 H18         33.2343  36.3741  33.9580 H              1 <1>                0.0000
     19 H19         33.3586  37.9104  34.8481 H              1 <1>                0.0000
     20 H20         34.5506  36.6190  35.1308 H              1 <1>                0.0000
     21 H21         33.8340  34.5889  36.6147 H              1 <1>                0.0000
     22 H22         32.0153  34.1456  39.6374 H              1 <1>                0.0000
     23 H23         28.6657  37.7282  36.7519 H              1 <1>                0.0000
     24 H24         25.9870  38.2965  38.0579 H              1 <1>                0.0000
     25 H25         24.6059  37.7275  39.9948 H              1 <1>                0.0000
     26 H26         25.4228  36.1341  41.6790 H              1 <1>                0.0000
     27 H27         27.6321  35.0916  41.4439 H              1 <1>                0.0000
@<TRIPOS>BOND
    1    1    2 1     
    2    1   18 1     
    3    1   19 1     
    4    1   20 1     
    5    2    3 1     
    6    2    8 1     
    7    3    4 2     
    8    3   21 1     
    9    4    5 1     
   10    4    7 1     
   11    5    6 2     
   12    5   22 1     
   13    7    8 2     
   14    7    9 1     
   15    9   10 2     
   16    9   17 1     
   17   10   11 1     
   18   10   23 1     
   19   11   12 ar    
   20   11   16 ar    
   21   12   13 ar    
   22   12   24 1     
   23   13   14 ar    
   24   13   25 1     
   25   14   15 ar    
   26   14   26 1     
   27   15   16 ar    
   28   15   27 1     
   29   16   17 1     
@<TRIPOS>SUBSTRUCTURE
      1 ****           1
@<TRIPOS>COMMENT
> <Gold.Version>
2022.2.0

> <Gold.Id.Protein>
1qkm|1qkm_protein|mol2

> <Gold.Protein.RotatedTorsions>
[  496  491  490  487 ] final   84.08 input  -89.99 | X-H torsion

> <Gold.Protein.ActiveResidues>
 MET295  LEU298  THR299  LEU301  ALA302  GLU305  TRP335  MET336  LEU339  MET340 
 GLY342  LEU343  ARG346  PHE356  ILE373  ILE376  PHE377  LEU380  LYS471  GLY472 
 MET473  HIS475  LEU476  LEU477  ASN478  MET479  VAL484  VAL487 

> <Gold.Protein.RotatedAtoms>
   36.7655   33.0651   42.0923 H   0  0  0  0  0  0  0  0  0  0  0  0  # atno 496  bound_to 491 

> <Gold.Score>
     Score     S(PLP)   S(hbond)     S(cho)   S(metal)  DE(clash)   DE(tors)     intcor
     57.57     -59.17       0.00       0.00       0.00       0.00       0.80       0.00

> <Gold.PLP.Fitness>
57.5685

> <Gold.PLP.PLP>
-59.1740

> <Gold.PLP.part.hbond>
0.0000

> <Gold.PLP.part.metal>
0.0000

> <Gold.PLP.part.buried>
-5.5186

> <Gold.PLP.part.nonpolar>
-54.9666

> <Gold.PLP.part.repulsive>
0.0991

> <Gold.PLP.ligand.clash>
0.0000

> <Gold.PLP.ligand.torsion>
0.8027

> <Gold.PLP.Chemscore.Hbond>
0.0000

> <Gold.PLP.Chemscore.CHOScore>
0.0000

> <Gold.PLP.Chemscore.Metal>
0.0000

> <Gold.PLP.Chemscore.Internal.Correction>
0.0000

