#       Name:                EN300-125606_i001
#       Creating user name   fsindt
#       Creation time:       Tue Feb 28 12:02:25 2023


#       File generated by GOLD software.
#

@<TRIPOS>MOLECULE
EN300-125606_i001|amine_4|mol2|5092|dock19
    20    21     1
SMALL
USER_CHARGES


@<TRIPOS>ATOM
      1 N1           1.1042 -10.8004   9.8952 N.pl3          1 <1>                0.0000
      2 C2          -0.2905 -10.8281   9.9092 C.ar           1 <1>                0.0000
      3 C3          -1.0082  -9.8977  10.6519 C.ar           1 <1>                0.0000
      4 C4          -2.3937  -9.9650  10.6349 C.ar           1 <1>                0.0000
      5 C5          -3.0187 -10.9460   9.8873 C.ar           1 <1>                0.0000
      6 N6          -2.3199 -11.8189   9.1901 N.ar           1 <1>                0.0000
      7 C7          -0.9921 -11.7918   9.1697 C.ar           1 <1>                0.0000
      8 C8          -0.2501 -12.7894   8.3745 C.2            1 <1>                0.0000
      9 C9          -0.7891 -13.8644   7.7380 C.2            1 <1>                0.0000
     10 C10          0.2753 -14.5385   7.1079 C.2            1 <1>                0.0000
     11 C11          1.3997 -13.8499   7.3874 C.2            1 <1>                0.0000
     12 O12          1.0778 -12.7908   8.1477 O.3            1 <1>                0.0000
     13 H13         -0.4989  -9.1401  11.2289 H              1 <1>                0.0000
     14 H14         -2.9798  -9.2567  11.2017 H              1 <1>                0.0000
     15 H15         -4.0974 -10.9980   9.8750 H              1 <1>                0.0000
     16 H16         -1.8315 -14.1466   7.7198 H              1 <1>                0.0000
     17 H17          0.2039 -15.4372   6.5133 H              1 <1>                0.0000
     18 H18          2.3939 -14.1049   7.0516 H              1 <1>                0.0000
     19 H19          1.5810 -10.1280  10.4064 H              1 <1>                0.0000
     20 H20          1.5971 -11.4560   9.3774 H              1 <1>                0.0000
@<TRIPOS>BOND
    1    1    2 1     
    2    1   19 1     
    3    1   20 1     
    4    2    3 ar    
    5    2    7 ar    
    6    3    4 ar    
    7    3   13 1     
    8    4    5 ar    
    9    4   14 1     
   10    5    6 ar    
   11    5   15 1     
   12    6    7 ar    
   13    7    8 1     
   14    8    9 2     
   15    8   12 1     
   16    9   10 1     
   17    9   16 1     
   18   10   11 2     
   19   10   17 1     
   20   11   12 1     
   21   11   18 1     
@<TRIPOS>SUBSTRUCTURE
      1 ****           1
@<TRIPOS>SET
DONOR_HYDROGENS      STATIC     ATOMS    <user>   **** ""
2 19 20
ATOM$RED        STATIC     ATOMS    COLORGROUP SYSTEM
2 19 20
@<TRIPOS>COMMENT
> <Gold.Version>
2022.2.0

> <Gold.Id.Protein>
3pbl|protein|mol2

> <Gold.Protein.RotatedTorsions>
[ 1303 1298 1297 1294 ] final -101.08 input  179.99 | X-H torsion
[ 2461 2456 2455 2452 ] final   17.49 input   30.03 | X-H torsion
[ 2515 2510 2509 2506 ] final -118.98 input  -89.99 | X-H torsion
[ 3721 3712 3711 3710 ] final   22.03 input -179.91 | X-H torsion
[ 3841 3832 3831 3830 ] final   20.67 input -179.91 | X-H torsion
[ 3767 3762 3761 3758 ] final  125.60 input  -89.99 | X-H torsion
[ 2472 2467 2466 2463 ] final   30.49 input  -89.97 | X-H torsion

> <Gold.Protein.ActiveResidues>
 VAL82   VAL86   LEU89   PHE106  VAL107  ASP110  VAL111  MET112  CYS114  THR115 
 CYS181  SER182  ILE183  PHE188  VAL189  ILE190  SER192  SER193  SER196  TRP342 
 PHE345  PHE346  HIS349  VAL350  TYR365  THR369  GLY372  TYR373 

> <Gold.Protein.RotatedAtoms>
    3.9731   -8.5449    3.9400 H   0  0  0  0  0  0  0  0  0  0  0  0  # atno 1303 bound_to 1298
    1.3186   -7.9249    7.0644 H   0  0  0  0  0  0  0  0  0  0  0  0  # atno 2461 bound_to 2456
   -4.1733   -4.8035    7.7575 H   0  0  0  0  0  0  0  0  0  0  0  0  # atno 2472 bound_to 2467
    2.7197   -9.1982    4.9861 H   0  0  0  0  0  0  0  0  0  0  0  0  # atno 2515 bound_to 2510
   -2.4722  -18.0323   13.9205 H   0  0  0  0  0  0  0  0  0  0  0  0  # atno 3721 bound_to 3712
   -3.9317  -23.1441   10.9808 H   0  0  0  0  0  0  0  0  0  0  0  0  # atno 3767 bound_to 3762
    1.9509  -20.7033    9.6198 H   0  0  0  0  0  0  0  0  0  0  0  0  # atno 3841 bound_to 3832
    4.8678   -9.4887    4.9274 LP  0  0  0  0  0  0  0  0  0  0  0  0  # atno 4297 bound_to 1298
    3.5213  -10.0881    4.2243 LP  0  0  0  0  0  0  0  0  0  0  0  0  # atno 4298 bound_to 1298
    0.4194   -9.0336    7.8579 LP  0  0  0  0  0  0  0  0  0  0  0  0  # atno 4299 bound_to 2456
    1.9998   -8.8495    8.2257 LP  0  0  0  0  0  0  0  0  0  0  0  0  # atno 4300 bound_to 2456
    2.0430   -8.1823    6.0705 LP  0  0  0  0  0  0  0  0  0  0  0  0  # atno 4301 bound_to 2510
    2.5338   -7.6182    4.6188 LP  0  0  0  0  0  0  0  0  0  0  0  0  # atno 4302 bound_to 2510
   -3.2945  -16.9013   14.7095 LP  0  0  0  0  0  0  0  0  0  0  0  0  # atno 4306 bound_to 3712
   -3.3790  -17.0063   13.0821 LP  0  0  0  0  0  0  0  0  0  0  0  0  # atno 4307 bound_to 3712
    1.8477  -19.6411    8.4210 LP  0  0  0  0  0  0  0  0  0  0  0  0  # atno 4314 bound_to 3832
    3.1281  -20.6487    8.5303 LP  0  0  0  0  0  0  0  0  0  0  0  0  # atno 4315 bound_to 3832
   -5.2701  -22.7855   10.1165 LP  0  0  0  0  0  0  0  0  0  0  0  0  # atno 4318 bound_to 3762
   -4.9253  -21.9456   11.4738 LP  0  0  0  0  0  0  0  0  0  0  0  0  # atno 4319 bound_to 3762
   -4.0368   -5.3412    9.2933 LP  0  0  0  0  0  0  0  0  0  0  0  0  # atno 4320 bound_to 2467
   -5.5068   -5.2488    8.5882 LP  0  0  0  0  0  0  0  0  0  0  0  0  # atno 4321 bound_to 2467

> <Gold.Score>
     Score     S(PLP)   S(hbond)     S(cho)   S(metal)  DE(clash)   DE(tors)     intcor
     43.28     -40.39       0.00       0.98       0.00       0.00       0.03       0.00

> <Gold.PLP.Fitness>
43.2814

> <Gold.PLP.PLP>
-40.3893

> <Gold.PLP.part.hbond>
-0.9548

> <Gold.PLP.part.metal>
0.0000

> <Gold.PLP.part.buried>
-2.9227

> <Gold.PLP.part.nonpolar>
-37.2020

> <Gold.PLP.part.repulsive>
0.0217

> <Gold.PLP.ligand.clash>
0.0000

> <Gold.PLP.ligand.torsion>
0.0280

> <Gold.PLP.Chemscore.Hbond>
0.0000

> <Gold.PLP.Chemscore.CHOScore>
0.9826

> <Gold.PLP.Chemscore.Metal>
0.0000

> <Gold.Chemscore.Hbonds>
donor molecule, donor type, donor heavy atom, donor atom, acceptor molecule, acceptor atom, score
      L1  C    11    18       P1  1223  0.98

> <Gold.PLP.Chemscore.Internal.Correction>
0.0001

