#       Name:                EN300-125606_i001
#       Creating user name   fsindt
#       Creation time:       Tue Feb 28 12:02:21 2023


#       File generated by GOLD software.
#

@<TRIPOS>MOLECULE
EN300-125606_i001|amine_4|mol2|5092|dock10
    20    21     1
SMALL
USER_CHARGES


@<TRIPOS>ATOM
      1 N1           1.1674 -10.2644  10.2301 N.pl3          1 <1>                0.0000
      2 C2          -0.2062 -10.5059  10.2005 C.ar           1 <1>                0.0000
      3 C3          -1.0390  -9.9693  11.1755 C.ar           1 <1>                0.0000
      4 C4          -2.3984 -10.2370  11.1045 C.ar           1 <1>                0.0000
      5 C5          -2.8847 -11.0229  10.0760 C.ar           1 <1>                0.0000
      6 N6          -2.0782 -11.5224   9.1614 N.ar           1 <1>                0.0000
      7 C7          -0.7707 -11.2896   9.1831 C.ar           1 <1>                0.0000
      8 C8           0.0951 -11.8695   8.1380 C.2            1 <1>                0.0000
      9 C9           0.0140 -13.1352   7.6453 C.2            1 <1>                0.0000
     10 C10          1.0255 -13.2574   6.6726 C.2            1 <1>                0.0000
     11 C11          1.6678 -12.0738   6.6195 C.2            1 <1>                0.0000
     12 O12          1.0994 -11.2359   7.5018 O.3            1 <1>                0.0000
     13 H13         -0.6371  -9.3583  11.9701 H              1 <1>                0.0000
     14 H14         -3.0716  -9.8350  11.8471 H              1 <1>                0.0000
     15 H15         -3.9431 -11.2312  10.0216 H              1 <1>                0.0000
     16 H16         -0.6896 -13.8987   7.9429 H              1 <1>                0.0000
     17 H17          1.2450 -14.1341   6.0812 H              1 <1>                0.0000
     18 H18          2.4986 -11.8368   5.9716 H              1 <1>                0.0000
     19 H19          1.5487  -9.7181  10.9350 H              1 <1>                0.0000
     20 H20          1.7418 -10.6462   9.5480 H              1 <1>                0.0000
@<TRIPOS>BOND
    1    1    2 1     
    2    1   19 1     
    3    1   20 1     
    4    2    3 ar    
    5    2    7 ar    
    6    3    4 ar    
    7    3   13 1     
    8    4    5 ar    
    9    4   14 1     
   10    5    6 ar    
   11    5   15 1     
   12    6    7 ar    
   13    7    8 1     
   14    8    9 2     
   15    8   12 1     
   16    9   10 1     
   17    9   16 1     
   18   10   11 2     
   19   10   17 1     
   20   11   12 1     
   21   11   18 1     
@<TRIPOS>SUBSTRUCTURE
      1 ****           1
@<TRIPOS>SET
DONOR_HYDROGENS      STATIC     ATOMS    <user>   **** ""
2 19 20
ATOM$RED        STATIC     ATOMS    COLORGROUP SYSTEM
2 19 20
@<TRIPOS>COMMENT
> <Gold.Version>
2022.2.0

> <Gold.Id.Protein>
3pbl|protein|mol2

> <Gold.Protein.RotatedTorsions>
[ 1303 1298 1297 1294 ] final  131.02 input  179.99 | X-H torsion
[ 2461 2456 2455 2452 ] final -148.73 input   30.03 | X-H torsion
[ 2515 2510 2509 2506 ] final   56.06 input  -89.99 | X-H torsion
[ 3721 3712 3711 3710 ] final  -20.35 input -179.91 | X-H torsion
[ 3841 3832 3831 3830 ] final  170.98 input -179.91 | X-H torsion
[ 3767 3762 3761 3758 ] final  140.22 input  -89.99 | X-H torsion
[ 2472 2467 2466 2463 ] final  -52.89 input  -89.97 | X-H torsion

> <Gold.Protein.ActiveResidues>
 VAL82   VAL86   LEU89   PHE106  VAL107  ASP110  VAL111  MET112  CYS114  THR115 
 CYS181  SER182  ILE183  PHE188  VAL189  ILE190  SER192  SER193  SER196  TRP342 
 PHE345  PHE346  HIS349  VAL350  TYR365  THR369  GLY372  TYR373 

> <Gold.Protein.RotatedAtoms>
    4.8245   -9.6097    4.9449 H   0  0  0  0  0  0  0  0  0  0  0  0  # atno 1303 bound_to 1298
    0.9579   -9.2863    8.2984 H   0  0  0  0  0  0  0  0  0  0  0  0  # atno 2461 bound_to 2456
   -3.6832   -5.1468    8.8597 H   0  0  0  0  0  0  0  0  0  0  0  0  # atno 2472 bound_to 2467
    2.1705   -7.4430    5.3908 H   0  0  0  0  0  0  0  0  0  0  0  0  # atno 2515 bound_to 2510
   -2.5549  -17.7987   14.4956 H   0  0  0  0  0  0  0  0  0  0  0  0  # atno 3721 bound_to 3712
   -3.9066  -23.0048   11.1747 H   0  0  0  0  0  0  0  0  0  0  0  0  # atno 3767 bound_to 3762
    3.0279  -20.1552    8.4622 H   0  0  0  0  0  0  0  0  0  0  0  0  # atno 3841 bound_to 3832
    3.4560  -10.0064    4.1472 LP  0  0  0  0  0  0  0  0  0  0  0  0  # atno 4297 bound_to 1298
    4.0814   -8.5052    3.9993 LP  0  0  0  0  0  0  0  0  0  0  0  0  # atno 4298 bound_to 1298
    2.1423   -8.3114    7.7379 LP  0  0  0  0  0  0  0  0  0  0  0  0  # atno 4299 bound_to 2456
    0.6374   -8.2107    7.1120 LP  0  0  0  0  0  0  0  0  0  0  0  0  # atno 4300 bound_to 2456
    2.8292   -8.5621    4.4011 LP  0  0  0  0  0  0  0  0  0  0  0  0  # atno 4301 bound_to 2510
    2.2971   -8.9945    5.8833 LP  0  0  0  0  0  0  0  0  0  0  0  0  # atno 4302 bound_to 2510
   -3.5324  -16.5732   14.1484 LP  0  0  0  0  0  0  0  0  0  0  0  0  # atno 4306 bound_to 3712
   -3.0456  -17.6042   12.9793 LP  0  0  0  0  0  0  0  0  0  0  0  0  # atno 4307 bound_to 3712
    2.2368  -21.1023    9.4884 LP  0  0  0  0  0  0  0  0  0  0  0  0  # atno 4314 bound_to 3832
    1.4949  -19.8207    8.8002 LP  0  0  0  0  0  0  0  0  0  0  0  0  # atno 4315 bound_to 3832
   -5.1071  -22.9551   10.0687 LP  0  0  0  0  0  0  0  0  0  0  0  0  # atno 4318 bound_to 3762
   -5.1133  -21.9152   11.3278 LP  0  0  0  0  0  0  0  0  0  0  0  0  # atno 4319 bound_to 3762
   -5.2752   -5.4110    9.1089 LP  0  0  0  0  0  0  0  0  0  0  0  0  # atno 4320 bound_to 2467
   -4.7583   -4.8358    7.6706 LP  0  0  0  0  0  0  0  0  0  0  0  0  # atno 4321 bound_to 2467

> <Gold.Score>
     Score     S(PLP)   S(hbond)     S(cho)   S(metal)  DE(clash)   DE(tors)     intcor
     44.77     -41.64       0.67       0.84       0.00       0.00       0.69       0.00

> <Gold.PLP.Fitness>
44.7719

> <Gold.PLP.PLP>
-41.6398

> <Gold.PLP.part.hbond>
-2.0000

> <Gold.PLP.part.metal>
0.0000

> <Gold.PLP.part.buried>
-3.4025

> <Gold.PLP.part.nonpolar>
-37.9437

> <Gold.PLP.part.repulsive>
0.0204

> <Gold.PLP.ligand.clash>
0.0000

> <Gold.PLP.ligand.torsion>
0.6935

> <Gold.PLP.Chemscore.Hbond>
0.6708

> <Gold.PLP.Chemscore.CHOScore>
0.8355

> <Gold.PLP.Chemscore.Metal>
0.0000

> <Gold.Chemscore.Hbonds>
donor molecule, donor type, donor heavy atom, donor atom, acceptor molecule, acceptor atom, score
      P1  H  2456  2461       L1    12  0.67
      L1  C    11    18       P1  1235  0.84

> <Gold.PLP.Chemscore.Internal.Correction>
0.0001

