#       Name:                EN300-125606_i001
#       Creating user name   fsindt
#       Creation time:       Tue Feb 28 12:02:20 2023


#       File generated by GOLD software.
#

@<TRIPOS>MOLECULE
EN300-125606_i001|amine_4|mol2|5092|dock6
    20    21     1
SMALL
USER_CHARGES


@<TRIPOS>ATOM
      1 N1           0.6676 -10.8505   8.3934 N.pl3          1 <1>                0.0000
      2 C2          -0.0027 -11.3151   9.5251 C.ar           1 <1>                0.0000
      3 C3          -0.4820 -10.4237  10.4779 C.ar           1 <1>                0.0000
      4 C4          -1.1423 -10.9328  11.5867 C.ar           1 <1>                0.0000
      5 C5          -1.3048 -12.3000  11.7141 C.ar           1 <1>                0.0000
      6 N6          -0.8427 -13.1283  10.7994 N.ar           1 <1>                0.0000
      7 C7          -0.2092 -12.6892   9.7177 C.ar           1 <1>                0.0000
      8 C8           0.2916 -13.6533   8.7189 C.2            1 <1>                0.0000
      9 C9          -0.0923 -14.9533   8.6011 C.2            1 <1>                0.0000
     10 C10          0.6346 -15.4949   7.5228 C.2            1 <1>                0.0000
     11 C11          1.4183 -14.5102   7.0404 C.2            1 <1>                0.0000
     12 O12          1.2043 -13.3977   7.7615 O.3            1 <1>                0.0000
     13 H13         -0.3434  -9.3594  10.3580 H              1 <1>                0.0000
     14 H14         -1.5262 -10.2662  12.3449 H              1 <1>                0.0000
     15 H15         -1.8187 -12.6956  12.5779 H              1 <1>                0.0000
     16 H16         -0.8145 -15.4701   9.2158 H              1 <1>                0.0000
     17 H17          0.5753 -16.5077   7.1528 H              1 <1>                0.0000
     18 H18          2.1016 -14.5997   6.2089 H              1 <1>                0.0000
     19 H19          0.8026  -9.8984   8.2663 H              1 <1>                0.0000
     20 H20          1.0024 -11.4798   7.7355 H              1 <1>                0.0000
@<TRIPOS>BOND
    1    1    2 1     
    2    1   19 1     
    3    1   20 1     
    4    2    3 ar    
    5    2    7 ar    
    6    3    4 ar    
    7    3   13 1     
    8    4    5 ar    
    9    4   14 1     
   10    5    6 ar    
   11    5   15 1     
   12    6    7 ar    
   13    7    8 1     
   14    8    9 2     
   15    8   12 1     
   16    9   10 1     
   17    9   16 1     
   18   10   11 2     
   19   10   17 1     
   20   11   12 1     
   21   11   18 1     
@<TRIPOS>SUBSTRUCTURE
      1 ****           1
@<TRIPOS>SET
DONOR_HYDROGENS      STATIC     ATOMS    <user>   **** ""
2 19 20
ATOM$RED        STATIC     ATOMS    COLORGROUP SYSTEM
2 19 20
@<TRIPOS>COMMENT
> <Gold.Version>
2022.2.0

> <Gold.Id.Protein>
3pbl|protein|mol2

> <Gold.Protein.RotatedTorsions>
[ 1303 1298 1297 1294 ] final  133.99 input  179.99 | X-H torsion
[ 2461 2456 2455 2452 ] final  -10.71 input   30.03 | X-H torsion
[ 2515 2510 2509 2506 ] final   15.99 input  -89.99 | X-H torsion
[ 3721 3712 3711 3710 ] final   53.46 input -179.91 | X-H torsion
[ 3841 3832 3831 3830 ] final  158.39 input -179.91 | X-H torsion
[ 3767 3762 3761 3758 ] final  -73.64 input  -89.99 | X-H torsion
[ 2472 2467 2466 2463 ] final   22.87 input  -89.97 | X-H torsion

> <Gold.Protein.ActiveResidues>
 VAL82   VAL86   LEU89   PHE106  VAL107  ASP110  VAL111  MET112  CYS114  THR115 
 CYS181  SER182  ILE183  PHE188  VAL189  ILE190  SER192  SER193  SER196  TRP342 
 PHE345  PHE346  HIS349  VAL350  TYR365  THR369  GLY372  TYR373 

> <Gold.Protein.RotatedAtoms>
    4.8422   -9.5645    4.9397 H   0  0  0  0  0  0  0  0  0  0  0  0  # atno 1303 bound_to 1298
    0.8788   -8.0556    7.0413 H   0  0  0  0  0  0  0  0  0  0  0  0  # atno 2461 bound_to 2456
   -4.0642   -4.8135    7.8185 H   0  0  0  0  0  0  0  0  0  0  0  0  # atno 2472 bound_to 2467
    2.4297   -7.4913    4.8012 H   0  0  0  0  0  0  0  0  0  0  0  0  # atno 2515 bound_to 2510
   -2.5590  -17.9513   13.4666 H   0  0  0  0  0  0  0  0  0  0  0  0  # atno 3721 bound_to 3712
   -5.3770  -21.9745   10.9979 H   0  0  0  0  0  0  0  0  0  0  0  0  # atno 3767 bound_to 3762
    3.0972  -20.3060    8.5543 H   0  0  0  0  0  0  0  0  0  0  0  0  # atno 3841 bound_to 3832
    3.4792  -10.0386    4.1758 LP  0  0  0  0  0  0  0  0  0  0  0  0  # atno 4297 bound_to 1298
    4.0405   -8.5182    3.9759 LP  0  0  0  0  0  0  0  0  0  0  0  0  # atno 4298 bound_to 1298
    0.7033   -9.2346    8.1578 LP  0  0  0  0  0  0  0  0  0  0  0  0  # atno 4299 bound_to 2456
    2.1556   -8.5178    7.9488 LP  0  0  0  0  0  0  0  0  0  0  0  0  # atno 4300 bound_to 2456
    2.7831   -9.0851    4.7776 LP  0  0  0  0  0  0  0  0  0  0  0  0  # atno 4301 bound_to 2510
    2.0839   -8.4231    6.0966 LP  0  0  0  0  0  0  0  0  0  0  0  0  # atno 4302 bound_to 2510
   -3.0382  -17.3246   14.8649 LP  0  0  0  0  0  0  0  0  0  0  0  0  # atno 4306 bound_to 3712
   -3.5351  -16.6767   13.4508 LP  0  0  0  0  0  0  0  0  0  0  0  0  # atno 4307 bound_to 3712
    2.0479  -21.0231    9.5344 LP  0  0  0  0  0  0  0  0  0  0  0  0  # atno 4314 bound_to 3832
    1.6037  -19.7257    8.6478 LP  0  0  0  0  0  0  0  0  0  0  0  0  # atno 4315 bound_to 3832
   -3.9908  -22.7018   11.4628 LP  0  0  0  0  0  0  0  0  0  0  0  0  # atno 4318 bound_to 3762
   -4.7597  -23.1985   10.1105 LP  0  0  0  0  0  0  0  0  0  0  0  0  # atno 4319 bound_to 3762
   -4.1437   -5.3735    9.3503 LP  0  0  0  0  0  0  0  0  0  0  0  0  # atno 4320 bound_to 2467
   -5.5090   -5.2065    8.4701 LP  0  0  0  0  0  0  0  0  0  0  0  0  # atno 4321 bound_to 2467

> <Gold.Score>
     Score     S(PLP)   S(hbond)     S(cho)   S(metal)  DE(clash)   DE(tors)     intcor
     42.11     -36.86       1.00       0.83       0.00       0.00       0.12       0.00

> <Gold.PLP.Fitness>
42.1089

> <Gold.PLP.PLP>
-36.8583

> <Gold.PLP.part.hbond>
-0.8854

> <Gold.PLP.part.metal>
0.0000

> <Gold.PLP.part.buried>
-3.5863

> <Gold.PLP.part.nonpolar>
-32.7749

> <Gold.PLP.part.repulsive>
0.1085

> <Gold.PLP.ligand.clash>
0.0000

> <Gold.PLP.ligand.torsion>
0.1219

> <Gold.PLP.Chemscore.Hbond>
1.0000

> <Gold.PLP.Chemscore.CHOScore>
0.8314

> <Gold.PLP.Chemscore.Metal>
0.0000

> <Gold.Chemscore.Hbonds>
donor molecule, donor type, donor heavy atom, donor atom, acceptor molecule, acceptor atom, score
      L1  H     1    19       P1  2456  1.00
      L1  C    11    18       P1  1223  0.83

> <Gold.PLP.Chemscore.Internal.Correction>
0.0001

