#       Name:                EN300-125606_i001
#       Creating user name   fsindt
#       Creation time:       Tue Feb 28 12:02:22 2023


#       File generated by GOLD software.
#

@<TRIPOS>MOLECULE
EN300-125606_i001|amine_4|mol2|5092|dock11
    20    21     1
SMALL
USER_CHARGES


@<TRIPOS>ATOM
      1 N1          -0.3256 -13.9371   9.5756 N.pl3          1 <1>                0.0000
      2 C2           0.2050 -13.2034   8.5143 C.ar           1 <1>                0.0000
      3 C3           0.9364 -13.8348   7.5150 C.ar           1 <1>                0.0000
      4 C4           1.4443 -13.0636   6.4797 C.ar           1 <1>                0.0000
      5 C5           1.2121 -11.7006   6.4688 C.ar           1 <1>                0.0000
      6 N6           0.5161 -11.1212   7.4260 N.ar           1 <1>                0.0000
      7 C7           0.0045 -11.8173   8.4348 C.ar           1 <1>                0.0000
      8 C8          -0.7687 -11.1266   9.4852 C.2            1 <1>                0.0000
      9 C9          -0.5544 -11.2187  10.8256 C.2            1 <1>                0.0000
     10 C10         -1.5174 -10.4001  11.4476 C.2            1 <1>                0.0000
     11 C11         -2.2644  -9.8543  10.4676 C.2            1 <1>                0.0000
     12 O12         -1.8057 -10.2907   9.2832 O.3            1 <1>                0.0000
     13 H13          1.1056 -14.9010   7.5440 H              1 <1>                0.0000
     14 H14          2.0170 -13.5244   5.6884 H              1 <1>                0.0000
     15 H15          1.6082 -11.1008   5.6626 H              1 <1>                0.0000
     16 H16          0.2066 -11.8064  11.3177 H              1 <1>                0.0000
     17 H17         -1.6350 -10.2402  12.5092 H              1 <1>                0.0000
     18 H18         -3.0916  -9.1749  10.6106 H              1 <1>                0.0000
     19 H19         -0.1854 -14.8957   9.6206 H              1 <1>                0.0000
     20 H20         -0.8313 -13.4878  10.2708 H              1 <1>                0.0000
@<TRIPOS>BOND
    1    1    2 1     
    2    1   19 1     
    3    1   20 1     
    4    2    3 ar    
    5    2    7 ar    
    6    3    4 ar    
    7    3   13 1     
    8    4    5 ar    
    9    4   14 1     
   10    5    6 ar    
   11    5   15 1     
   12    6    7 ar    
   13    7    8 1     
   14    8    9 2     
   15    8   12 1     
   16    9   10 1     
   17    9   16 1     
   18   10   11 2     
   19   10   17 1     
   20   11   12 1     
   21   11   18 1     
@<TRIPOS>SUBSTRUCTURE
      1 ****           1
@<TRIPOS>SET
DONOR_HYDROGENS      STATIC     ATOMS    <user>   **** ""
2 19 20
ATOM$RED        STATIC     ATOMS    COLORGROUP SYSTEM
2 19 20
@<TRIPOS>COMMENT
> <Gold.Version>
2022.2.0

> <Gold.Id.Protein>
3pbl|protein|mol2

> <Gold.Protein.RotatedTorsions>
[ 1303 1298 1297 1294 ] final -155.03 input  179.99 | X-H torsion
[ 2461 2456 2455 2452 ] final -132.31 input   30.03 | X-H torsion
[ 2515 2510 2509 2506 ] final   99.59 input  -89.99 | X-H torsion
[ 3721 3712 3711 3710 ] final  146.22 input -179.91 | X-H torsion
[ 3841 3832 3831 3830 ] final -141.34 input -179.91 | X-H torsion
[ 3767 3762 3761 3758 ] final  158.71 input  -89.99 | X-H torsion
[ 2472 2467 2466 2463 ] final  -24.01 input  -89.97 | X-H torsion

> <Gold.Protein.ActiveResidues>
 VAL82   VAL86   LEU89   PHE106  VAL107  ASP110  VAL111  MET112  CYS114  THR115 
 CYS181  SER182  ILE183  PHE188  VAL189  ILE190  SER192  SER193  SER196  TRP342 
 PHE345  PHE346  HIS349  VAL350  TYR365  THR369  GLY372  TYR373 

> <Gold.Protein.RotatedAtoms>
    4.6621   -8.6062    4.4426 H   0  0  0  0  0  0  0  0  0  0  0  0  # atno 1303 bound_to 1298
    0.7240   -9.2420    8.1725 H   0  0  0  0  0  0  0  0  0  0  0  0  # atno 2461 bound_to 2456
   -3.6496   -4.9846    8.4197 H   0  0  0  0  0  0  0  0  0  0  0  0  # atno 2472 bound_to 2467
    2.0310   -7.8596    5.9344 H   0  0  0  0  0  0  0  0  0  0  0  0  # atno 2515 bound_to 2510
   -3.1843  -16.9066   13.1659 H   0  0  0  0  0  0  0  0  0  0  0  0  # atno 3721 bound_to 3712
   -3.9492  -22.7948   11.3888 H   0  0  0  0  0  0  0  0  0  0  0  0  # atno 3767 bound_to 3762
    2.5147  -19.6898    8.3633 H   0  0  0  0  0  0  0  0  0  0  0  0  # atno 3841 bound_to 3832
    4.3495  -10.1617    4.8284 LP  0  0  0  0  0  0  0  0  0  0  0  0  # atno 4297 bound_to 1298
    3.3504   -9.3537    3.8206 LP  0  0  0  0  0  0  0  0  0  0  0  0  # atno 4298 bound_to 1298
    2.1581   -8.4988    7.9306 LP  0  0  0  0  0  0  0  0  0  0  0  0  # atno 4299 bound_to 2456
    0.8555   -8.0676    7.0452 LP  0  0  0  0  0  0  0  0  0  0  0  0  # atno 4300 bound_to 2456
    2.6696   -7.8821    4.4319 LP  0  0  0  0  0  0  0  0  0  0  0  0  # atno 4301 bound_to 2510
    2.5963   -9.2577    5.3087 LP  0  0  0  0  0  0  0  0  0  0  0  0  # atno 4302 bound_to 2510
   -2.6125  -18.2181   13.8943 LP  0  0  0  0  0  0  0  0  0  0  0  0  # atno 4306 bound_to 3712
   -3.2389  -16.9892   14.7684 LP  0  0  0  0  0  0  0  0  0  0  0  0  # atno 4307 bound_to 3712
    2.8866  -21.0828    9.0684 LP  0  0  0  0  0  0  0  0  0  0  0  0  # atno 4314 bound_to 3832
    1.4379  -20.3779    9.3344 LP  0  0  0  0  0  0  0  0  0  0  0  0  # atno 4315 bound_to 3832
   -4.8657  -23.1376   10.0815 LP  0  0  0  0  0  0  0  0  0  0  0  0  # atno 4318 bound_to 3762
   -5.3122  -21.9427   11.1010 LP  0  0  0  0  0  0  0  0  0  0  0  0  # atno 4319 bound_to 3762
   -4.8881   -5.4627    9.3705 LP  0  0  0  0  0  0  0  0  0  0  0  0  # atno 4320 bound_to 2467
   -5.1790   -4.9463    7.8489 LP  0  0  0  0  0  0  0  0  0  0  0  0  # atno 4321 bound_to 2467

> <Gold.Score>
     Score     S(PLP)   S(hbond)     S(cho)   S(metal)  DE(clash)   DE(tors)     intcor
     43.37     -40.20       0.80       0.87       0.00       0.00       0.92       0.00

> <Gold.PLP.Fitness>
43.3742

> <Gold.PLP.PLP>
-40.2034

> <Gold.PLP.part.hbond>
-1.0000

> <Gold.PLP.part.metal>
0.0000

> <Gold.PLP.part.buried>
-3.3322

> <Gold.PLP.part.nonpolar>
-36.4057

> <Gold.PLP.part.repulsive>
0.0506

> <Gold.PLP.ligand.clash>
0.0000

> <Gold.PLP.ligand.torsion>
0.9228

> <Gold.PLP.Chemscore.Hbond>
0.8000

> <Gold.PLP.Chemscore.CHOScore>
0.8721

> <Gold.PLP.Chemscore.Metal>
0.0000

> <Gold.Chemscore.Hbonds>
donor molecule, donor type, donor heavy atom, donor atom, acceptor molecule, acceptor atom, score
      P1  H  2456  2461       L1     6  0.80
      L1  C    11    18       P1  2398  0.87

> <Gold.PLP.Chemscore.Internal.Correction>
0.0001

