#       Name:                EN300-125606_i001
#       Creating user name   fsindt
#       Creation time:       Tue Feb 28 12:02:22 2023


#       File generated by GOLD software.
#

@<TRIPOS>MOLECULE
EN300-125606_i001|amine_4|mol2|5092|dock13
    20    21     1
SMALL
USER_CHARGES


@<TRIPOS>ATOM
      1 N1           0.2031 -10.8233   7.4002 N.pl3          1 <1>                0.0000
      2 C2           0.4204 -12.1595   7.7368 C.ar           1 <1>                0.0000
      3 C3           1.2339 -12.9637   6.9471 C.ar           1 <1>                0.0000
      4 C4           1.4203 -14.2863   7.3220 C.ar           1 <1>                0.0000
      5 C5           0.7981 -14.7656   8.4600 C.ar           1 <1>                0.0000
      6 N6           0.0305 -13.9866   9.1951 N.ar           1 <1>                0.0000
      7 C7          -0.1739 -12.7124   8.8809 C.ar           1 <1>                0.0000
      8 C8          -1.0416 -11.8767   9.7334 C.2            1 <1>                0.0000
      9 C9          -2.0932 -11.1250   9.3087 C.2            1 <1>                0.0000
     10 C10         -2.6305 -10.4977  10.4499 C.2            1 <1>                0.0000
     11 C11         -1.8890 -10.8925  11.5038 C.2            1 <1>                0.0000
     12 O12         -0.9338 -11.7299  11.0683 O.3            1 <1>                0.0000
     13 H13          1.7097 -12.5682   6.0620 H              1 <1>                0.0000
     14 H14          2.0462 -14.9368   6.7292 H              1 <1>                0.0000
     15 H15          0.9433 -15.7955   8.7510 H              1 <1>                0.0000
     16 H16         -2.4472 -11.0277   8.2930 H              1 <1>                0.0000
     17 H17         -3.4767  -9.8271  10.4754 H              1 <1>                0.0000
     18 H18         -2.0408 -10.5894  12.5292 H              1 <1>                0.0000
     19 H19          0.6212 -10.4482   6.6094 H              1 <1>                0.0000
     20 H20         -0.3693 -10.2704   7.9546 H              1 <1>                0.0000
@<TRIPOS>BOND
    1    1    2 1     
    2    1   19 1     
    3    1   20 1     
    4    2    3 ar    
    5    2    7 ar    
    6    3    4 ar    
    7    3   13 1     
    8    4    5 ar    
    9    4   14 1     
   10    5    6 ar    
   11    5   15 1     
   12    6    7 ar    
   13    7    8 1     
   14    8    9 2     
   15    8   12 1     
   16    9   10 1     
   17    9   16 1     
   18   10   11 2     
   19   10   17 1     
   20   11   12 1     
   21   11   18 1     
@<TRIPOS>SUBSTRUCTURE
      1 ****           1
@<TRIPOS>SET
DONOR_HYDROGENS      STATIC     ATOMS    <user>   **** ""
2 19 20
ATOM$RED        STATIC     ATOMS    COLORGROUP SYSTEM
2 19 20
@<TRIPOS>COMMENT
> <Gold.Version>
2022.2.0

> <Gold.Id.Protein>
3pbl|protein|mol2

> <Gold.Protein.RotatedTorsions>
[ 1303 1298 1297 1294 ] final   13.86 input  179.99 | X-H torsion
[ 2461 2456 2455 2452 ] final   86.48 input   30.03 | X-H torsion
[ 2515 2510 2509 2506 ] final -115.66 input  -89.99 | X-H torsion
[ 3721 3712 3711 3710 ] final  164.41 input -179.91 | X-H torsion
[ 3841 3832 3831 3830 ] final  -66.47 input -179.91 | X-H torsion
[ 3767 3762 3761 3758 ] final  -30.67 input  -89.99 | X-H torsion
[ 2472 2467 2466 2463 ] final -166.14 input  -89.97 | X-H torsion

> <Gold.Protein.ActiveResidues>
 VAL82   VAL86   LEU89   PHE106  VAL107  ASP110  VAL111  MET112  CYS114  THR115 
 CYS181  SER182  ILE183  PHE188  VAL189  ILE190  SER192  SER193  SER196  TRP342 
 PHE345  PHE346  HIS349  VAL350  TYR365  THR369  GLY372  TYR373 

> <Gold.Protein.RotatedAtoms>
    3.4780  -10.0369    4.1749 H   0  0  0  0  0  0  0  0  0  0  0  0  # atno 1303 bound_to 1298
    2.1240   -8.2604    7.6807 H   0  0  0  0  0  0  0  0  0  0  0  0  # atno 2461 bound_to 2456
   -5.1974   -5.4308    9.1854 H   0  0  0  0  0  0  0  0  0  0  0  0  # atno 2472 bound_to 2467
    2.7356   -9.1779    4.9380 H   0  0  0  0  0  0  0  0  0  0  0  0  # atno 2515 bound_to 2510
   -3.2741  -16.7219   13.3471 H   0  0  0  0  0  0  0  0  0  0  0  0  # atno 3721 bound_to 3712
   -5.5004  -22.3444   10.4278 H   0  0  0  0  0  0  0  0  0  0  0  0  # atno 3767 bound_to 3762
    1.6496  -19.7566    8.9587 H   0  0  0  0  0  0  0  0  0  0  0  0  # atno 3841 bound_to 3832
    4.0425   -8.5175    3.9770 LP  0  0  0  0  0  0  0  0  0  0  0  0  # atno 4297 bound_to 1298
    4.8419   -9.5667    4.9397 LP  0  0  0  0  0  0  0  0  0  0  0  0  # atno 4298 bound_to 1298
    0.5825   -8.2590    7.1411 LP  0  0  0  0  0  0  0  0  0  0  0  0  # atno 4299 bound_to 2456
    1.0316   -9.2886    8.3264 LP  0  0  0  0  0  0  0  0  0  0  0  0  # atno 4300 bound_to 2456
    2.0499   -8.2354    6.0814 LP  0  0  0  0  0  0  0  0  0  0  0  0  # atno 4301 bound_to 2510
    2.5110   -7.5854    4.6561 LP  0  0  0  0  0  0  0  0  0  0  0  0  # atno 4302 bound_to 2510
   -2.6587  -18.1836   13.5972 LP  0  0  0  0  0  0  0  0  0  0  0  0  # atno 4306 bound_to 3712
   -3.0890  -17.2371   14.8564 LP  0  0  0  0  0  0  0  0  0  0  0  0  # atno 4307 bound_to 3712
    3.0035  -20.2569    8.2567 LP  0  0  0  0  0  0  0  0  0  0  0  0  # atno 4314 bound_to 3832
    2.3203  -21.1265    9.4583 LP  0  0  0  0  0  0  0  0  0  0  0  0  # atno 4315 bound_to 3832
   -4.4266  -22.1998   11.6496 LP  0  0  0  0  0  0  0  0  0  0  0  0  # atno 4318 bound_to 3762
   -4.2006  -23.3308   10.4935 LP  0  0  0  0  0  0  0  0  0  0  0  0  # atno 4319 bound_to 3762
   -4.8652   -4.8558    7.6936 LP  0  0  0  0  0  0  0  0  0  0  0  0  # atno 4320 bound_to 2467
   -3.6544   -5.1070    8.7602 LP  0  0  0  0  0  0  0  0  0  0  0  0  # atno 4321 bound_to 2467

> <Gold.Score>
     Score     S(PLP)   S(hbond)     S(cho)   S(metal)  DE(clash)   DE(tors)     intcor
     43.27     -42.23       0.00       0.96       0.00       0.00       0.92       0.00

> <Gold.PLP.Fitness>
43.2697

> <Gold.PLP.PLP>
-42.2343

> <Gold.PLP.part.hbond>
-1.0000

> <Gold.PLP.part.metal>
0.0000

> <Gold.PLP.part.buried>
-4.2878

> <Gold.PLP.part.nonpolar>
-37.7119

> <Gold.PLP.part.repulsive>
0.0473

> <Gold.PLP.ligand.clash>
0.0000

> <Gold.PLP.ligand.torsion>
0.9228

> <Gold.PLP.Chemscore.Hbond>
0.0000

> <Gold.PLP.Chemscore.CHOScore>
0.9603

> <Gold.PLP.Chemscore.Metal>
0.0000

> <Gold.Chemscore.Hbonds>
donor molecule, donor type, donor heavy atom, donor atom, acceptor molecule, acceptor atom, score
      L1  C     5    15       P1  1227  0.96

> <Gold.PLP.Chemscore.Internal.Correction>
0.0001

