#       Name:                EN300-125606_i001
#       Creating user name   fsindt
#       Creation time:       Tue Feb 28 12:02:24 2023


#       File generated by GOLD software.
#

@<TRIPOS>MOLECULE
EN300-125606_i001|amine_4|mol2|5092|dock17
    20    21     1
SMALL
USER_CHARGES


@<TRIPOS>ATOM
      1 N1          -0.7032 -13.6483  11.4215 N.pl3          1 <1>                0.0000
      2 C2          -1.0145 -12.4236  10.8306 C.ar           1 <1>                0.0000
      3 C3          -1.5886 -11.4033  11.5800 C.ar           1 <1>                0.0000
      4 C4          -1.8805 -10.2029  10.9487 C.ar           1 <1>                0.0000
      5 C5          -1.5957 -10.0541   9.6039 C.ar           1 <1>                0.0000
      6 N6          -1.0514 -11.0339   8.9111 N.ar           1 <1>                0.0000
      7 C7          -0.7482 -12.1992   9.4717 C.ar           1 <1>                0.0000
      8 C8          -0.1394 -13.2688   8.6572 C.2            1 <1>                0.0000
      9 C9           0.1476 -13.1962   7.3292 C.2            1 <1>                0.0000
     10 C10          0.7143 -14.4343   6.9683 C.2            1 <1>                0.0000
     11 C11          0.7452 -15.1941   8.0811 C.2            1 <1>                0.0000
     12 O12          0.2341 -14.4849   9.1005 O.3            1 <1>                0.0000
     13 H13         -1.8026 -11.5419  12.6294 H              1 <1>                0.0000
     14 H14         -2.3271  -9.3910  11.5035 H              1 <1>                0.0000
     15 H15         -1.8236  -9.1194   9.1130 H              1 <1>                0.0000
     16 H16         -0.0259 -12.3524   6.6776 H              1 <1>                0.0000
     17 H17          1.0588 -14.7207   5.9856 H              1 <1>                0.0000
     18 H18          1.1226 -16.2040   8.1436 H              1 <1>                0.0000
     19 H19         -0.8871 -13.7934  12.3627 H              1 <1>                0.0000
     20 H20         -0.3065 -14.3563  10.8901 H              1 <1>                0.0000
@<TRIPOS>BOND
    1    1    2 1     
    2    1   19 1     
    3    1   20 1     
    4    2    3 ar    
    5    2    7 ar    
    6    3    4 ar    
    7    3   13 1     
    8    4    5 ar    
    9    4   14 1     
   10    5    6 ar    
   11    5   15 1     
   12    6    7 ar    
   13    7    8 1     
   14    8    9 2     
   15    8   12 1     
   16    9   10 1     
   17    9   16 1     
   18   10   11 2     
   19   10   17 1     
   20   11   12 1     
   21   11   18 1     
@<TRIPOS>SUBSTRUCTURE
      1 ****           1
@<TRIPOS>SET
DONOR_HYDROGENS      STATIC     ATOMS    <user>   **** ""
2 19 20
ATOM$RED        STATIC     ATOMS    COLORGROUP SYSTEM
2 19 20
@<TRIPOS>COMMENT
> <Gold.Version>
2022.2.0

> <Gold.Id.Protein>
3pbl|protein|mol2

> <Gold.Protein.RotatedTorsions>
[ 1303 1298 1297 1294 ] final  126.09 input  179.99 | X-H torsion
[ 2461 2456 2455 2452 ] final  -93.21 input   30.03 | X-H torsion
[ 2515 2510 2509 2506 ] final  118.10 input  -89.99 | X-H torsion
[ 3721 3712 3711 3710 ] final   78.56 input -179.91 | X-H torsion
[ 3841 3832 3831 3830 ] final   78.17 input -179.91 | X-H torsion
[ 3767 3762 3761 3758 ] final   43.12 input  -89.99 | X-H torsion
[ 2472 2467 2466 2463 ] final   75.97 input  -89.97 | X-H torsion

> <Gold.Protein.ActiveResidues>
 VAL82   VAL86   LEU89   PHE106  VAL107  ASP110  VAL111  MET112  CYS114  THR115 
 CYS181  SER182  ILE183  PHE188  VAL189  ILE190  SER192  SER193  SER196  TRP342 
 PHE345  PHE346  HIS349  VAL350  TYR365  THR369  GLY372  TYR373 

> <Gold.Protein.RotatedAtoms>
    4.7908   -9.6834    4.9501 H   0  0  0  0  0  0  0  0  0  0  0  0  # atno 1303 bound_to 1298
    0.3664   -8.9417    7.7477 H   0  0  0  0  0  0  0  0  0  0  0  0  # atno 2461 bound_to 2456
   -4.8976   -4.8635    7.7029 H   0  0  0  0  0  0  0  0  0  0  0  0  # atno 2472 bound_to 2467
    2.0384   -8.1361    6.0583 H   0  0  0  0  0  0  0  0  0  0  0  0  # atno 2515 bound_to 2510
   -2.7034  -17.7423   13.1888 H   0  0  0  0  0  0  0  0  0  0  0  0  # atno 3721 bound_to 3712
   -4.8045  -23.1735   10.0960 H   0  0  0  0  0  0  0  0  0  0  0  0  # atno 3767 bound_to 3762
    2.7067  -20.9525    9.3750 H   0  0  0  0  0  0  0  0  0  0  0  0  # atno 3841 bound_to 3832
    3.4216   -9.9491    4.1011 LP  0  0  0  0  0  0  0  0  0  0  0  0  # atno 4297 bound_to 1298
    4.1496   -8.4887    4.0402 LP  0  0  0  0  0  0  0  0  0  0  0  0  # atno 4298 bound_to 1298
    1.9059   -8.9497    8.2930 LP  0  0  0  0  0  0  0  0  0  0  0  0  # atno 4299 bound_to 2456
    1.4651   -7.9169    7.1074 LP  0  0  0  0  0  0  0  0  0  0  0  0  # atno 4300 bound_to 2456
    2.5537   -7.6491    4.5876 LP  0  0  0  0  0  0  0  0  0  0  0  0  # atno 4301 bound_to 2510
    2.7049   -9.2140    5.0290 LP  0  0  0  0  0  0  0  0  0  0  0  0  # atno 4302 bound_to 2510
   -2.8401  -17.6822   14.7874 LP  0  0  0  0  0  0  0  0  0  0  0  0  # atno 4306 bound_to 3712
   -3.5664  -16.5603   13.8490 LP  0  0  0  0  0  0  0  0  0  0  0  0  # atno 4307 bound_to 3712
    1.3920  -20.0762    9.0927 LP  0  0  0  0  0  0  0  0  0  0  0  0  # atno 4314 bound_to 3832
    2.7107  -19.9257    8.1414 LP  0  0  0  0  0  0  0  0  0  0  0  0  # atno 4315 bound_to 3832
   -5.3511  -21.9599   11.0421 LP  0  0  0  0  0  0  0  0  0  0  0  0  # atno 4318 bound_to 3762
   -3.9717  -22.7418   11.4327 LP  0  0  0  0  0  0  0  0  0  0  0  0  # atno 4319 bound_to 3762
   -3.6480   -5.0948    8.7283 LP  0  0  0  0  0  0  0  0  0  0  0  0  # atno 4320 bound_to 2467
   -5.1714   -5.4352    9.2078 LP  0  0  0  0  0  0  0  0  0  0  0  0  # atno 4321 bound_to 2467

> <Gold.Score>
     Score     S(PLP)   S(hbond)     S(cho)   S(metal)  DE(clash)   DE(tors)     intcor
     43.39     -40.40       0.00       1.00       0.00       0.00       0.00       0.00

> <Gold.PLP.Fitness>
43.3936

> <Gold.PLP.PLP>
-40.3950

> <Gold.PLP.part.hbond>
0.0000

> <Gold.PLP.part.metal>
0.0000

> <Gold.PLP.part.buried>
-4.4051

> <Gold.PLP.part.nonpolar>
-37.0775

> <Gold.PLP.part.repulsive>
0.1202

> <Gold.PLP.ligand.clash>
0.0000

> <Gold.PLP.ligand.torsion>
0.0008

> <Gold.PLP.Chemscore.Hbond>
0.0000

> <Gold.PLP.Chemscore.CHOScore>
1.0000

> <Gold.PLP.Chemscore.Metal>
0.0000

> <Gold.Chemscore.Hbonds>
donor molecule, donor type, donor heavy atom, donor atom, acceptor molecule, acceptor atom, score
      L1  C    11    18       P1  1227  1.00

> <Gold.PLP.Chemscore.Internal.Correction>
0.0001

