#       Name:                EN300-125606_i001
#       Creating user name   fsindt
#       Creation time:       Tue Feb 28 12:02:23 2023


#       File generated by GOLD software.
#

@<TRIPOS>MOLECULE
EN300-125606_i001|amine_4|mol2|5092|dock15
    20    21     1
SMALL
USER_CHARGES


@<TRIPOS>ATOM
      1 N1          -0.1207 -13.9187  10.7631 N.pl3          1 <1>                0.0000
      2 C2           0.2693 -13.7241   9.4379 C.ar           1 <1>                0.0000
      3 C3           1.0360 -14.6787   8.7797 C.ar           1 <1>                0.0000
      4 C4           1.3996 -14.4412   7.4622 C.ar           1 <1>                0.0000
      5 C5           0.9943 -13.2726   6.8441 C.ar           1 <1>                0.0000
      6 N6           0.2677 -12.3801   7.4858 N.ar           1 <1>                0.0000
      7 C7          -0.1104 -12.5646   8.7456 C.ar           1 <1>                0.0000
      8 C8          -0.9240 -11.5379   9.4253 C.2            1 <1>                0.0000
      9 C9          -2.0906 -11.7550  10.0910 C.2            1 <1>                0.0000
     10 C10         -2.5183 -10.5045  10.5784 C.2            1 <1>                0.0000
     11 C11         -1.6023  -9.5950  10.1909 C.2            1 <1>                0.0000
     12 O12         -0.6377 -10.2235   9.4996 O.3            1 <1>                0.0000
     13 H13          1.3416 -15.5844   9.2824 H              1 <1>                0.0000
     14 H14          1.9952 -15.1633   6.9235 H              1 <1>                0.0000
     15 H15          1.2781 -13.0882   5.8184 H              1 <1>                0.0000
     16 H16         -2.5920 -12.7029  10.2202 H              1 <1>                0.0000
     17 H17         -3.4115 -10.3111  11.1539 H              1 <1>                0.0000
     18 H18         -1.6360  -8.5370  10.4048 H              1 <1>                0.0000
     19 H19          0.1431 -14.7252  11.2329 H              1 <1>                0.0000
     20 H20         -0.6522 -13.2455  11.2160 H              1 <1>                0.0000
@<TRIPOS>BOND
    1    1    2 1     
    2    1   19 1     
    3    1   20 1     
    4    2    3 ar    
    5    2    7 ar    
    6    3    4 ar    
    7    3   13 1     
    8    4    5 ar    
    9    4   14 1     
   10    5    6 ar    
   11    5   15 1     
   12    6    7 ar    
   13    7    8 1     
   14    8    9 2     
   15    8   12 1     
   16    9   10 1     
   17    9   16 1     
   18   10   11 2     
   19   10   17 1     
   20   11   12 1     
   21   11   18 1     
@<TRIPOS>SUBSTRUCTURE
      1 ****           1
@<TRIPOS>SET
DONOR_HYDROGENS      STATIC     ATOMS    <user>   **** ""
2 19 20
ATOM$RED        STATIC     ATOMS    COLORGROUP SYSTEM
2 19 20
@<TRIPOS>COMMENT
> <Gold.Version>
2022.2.0

> <Gold.Id.Protein>
3pbl|protein|mol2

> <Gold.Protein.RotatedTorsions>
[ 1303 1298 1297 1294 ] final   12.82 input  179.99 | X-H torsion
[ 2461 2456 2455 2452 ] final -129.31 input   30.03 | X-H torsion
[ 2515 2510 2509 2506 ] final   54.09 input  -89.99 | X-H torsion
[ 3721 3712 3711 3710 ] final  -52.79 input -179.91 | X-H torsion
[ 3841 3832 3831 3830 ] final  164.11 input -179.91 | X-H torsion
[ 3767 3762 3761 3758 ] final  -25.42 input  -89.99 | X-H torsion
[ 2472 2467 2466 2463 ] final  -81.72 input  -89.97 | X-H torsion

> <Gold.Protein.ActiveResidues>
 VAL82   VAL86   LEU89   PHE106  VAL107  ASP110  VAL111  MET112  CYS114  THR115 
 CYS181  SER182  ILE183  PHE188  VAL189  ILE190  SER192  SER193  SER196  TRP342 
 PHE345  PHE346  HIS349  VAL350  TYR365  THR369  GLY372  TYR373 

> <Gold.Protein.RotatedAtoms>
    3.4697  -10.0258    4.1649 H   0  0  0  0  0  0  0  0  0  0  0  0  # atno 1303 bound_to 1298
    0.6853   -9.2280    8.1451 H   0  0  0  0  0  0  0  0  0  0  0  0  # atno 2461 bound_to 2456
   -3.9374   -5.3051    9.2213 H   0  0  0  0  0  0  0  0  0  0  0  0  # atno 2472 bound_to 2467
    2.1813   -7.4349    5.3612 H   0  0  0  0  0  0  0  0  0  0  0  0  # atno 2515 bound_to 2510
   -2.7479  -17.4248   14.7344 H   0  0  0  0  0  0  0  0  0  0  0  0  # atno 3721 bound_to 3712
   -5.4852  -22.4053   10.3685 H   0  0  0  0  0  0  0  0  0  0  0  0  # atno 3767 bound_to 3762
    3.0700  -20.2372    8.5095 H   0  0  0  0  0  0  0  0  0  0  0  0  # atno 3841 bound_to 3832
    4.0568   -8.5127    3.9851 LP  0  0  0  0  0  0  0  0  0  0  0  0  # atno 4297 bound_to 1298
    4.8359   -9.5825    4.9417 LP  0  0  0  0  0  0  0  0  0  0  0  0  # atno 4298 bound_to 1298
    2.1528   -8.5345    7.9644 LP  0  0  0  0  0  0  0  0  0  0  0  0  # atno 4299 bound_to 2456
    0.8995   -8.0458    7.0388 LP  0  0  0  0  0  0  0  0  0  0  0  0  # atno 4300 bound_to 2456
    2.8315   -8.5929    4.4114 LP  0  0  0  0  0  0  0  0  0  0  0  0  # atno 4301 bound_to 2510
    2.2841   -8.9718    5.9026 LP  0  0  0  0  0  0  0  0  0  0  0  0  # atno 4302 bound_to 2510
   -3.5597  -16.6083   13.6154 LP  0  0  0  0  0  0  0  0  0  0  0  0  # atno 4306 bound_to 3712
   -2.7955  -18.0008   13.2365 LP  0  0  0  0  0  0  0  0  0  0  0  0  # atno 4307 bound_to 3712
    2.1330  -21.0631    9.5175 LP  0  0  0  0  0  0  0  0  0  0  0  0  # atno 4314 bound_to 3832
    1.5500  -19.7651    8.7163 LP  0  0  0  0  0  0  0  0  0  0  0  0  # atno 4315 bound_to 3832
   -4.4964  -22.1496   11.6428 LP  0  0  0  0  0  0  0  0  0  0  0  0  # atno 4318 bound_to 3762
   -4.1460  -23.3202   10.5595 LP  0  0  0  0  0  0  0  0  0  0  0  0  # atno 4319 bound_to 3762
   -5.4874   -5.2899    8.7080 LP  0  0  0  0  0  0  0  0  0  0  0  0  # atno 4320 bound_to 2467
   -4.2920   -4.7986    7.7099 LP  0  0  0  0  0  0  0  0  0  0  0  0  # atno 4321 bound_to 2467

> <Gold.Score>
     Score     S(PLP)   S(hbond)     S(cho)   S(metal)  DE(clash)   DE(tors)     intcor
     43.04     -39.41       0.83       1.00       0.00       0.00       0.93       0.00

> <Gold.PLP.Fitness>
43.0447

> <Gold.PLP.PLP>
-39.4097

> <Gold.PLP.part.hbond>
-1.0000

> <Gold.PLP.part.metal>
0.0000

> <Gold.PLP.part.buried>
-3.0999

> <Gold.PLP.part.nonpolar>
-36.4485

> <Gold.PLP.part.repulsive>
0.0424

> <Gold.PLP.ligand.clash>
0.0000

> <Gold.PLP.ligand.torsion>
0.9274

> <Gold.PLP.Chemscore.Hbond>
0.8299

> <Gold.PLP.Chemscore.CHOScore>
1.0000

> <Gold.PLP.Chemscore.Metal>
0.0000

> <Gold.Chemscore.Hbonds>
donor molecule, donor type, donor heavy atom, donor atom, acceptor molecule, acceptor atom, score
      P1  H  2456  2461       L1    12  0.83
      L1  C    11    18       P1  2398  1.00

> <Gold.PLP.Chemscore.Internal.Correction>
0.0001

