#       Name:                EN300-125606_i001
#       Creating user name   fsindt
#       Creation time:       Tue Feb 28 12:02:25 2023


#       File generated by GOLD software.
#

@<TRIPOS>MOLECULE
EN300-125606_i001|amine_4|mol2|5092|dock20
    20    21     1
SMALL
USER_CHARGES


@<TRIPOS>ATOM
      1 N1          -1.1187 -11.7678  10.3456 N.pl3          1 <1>                0.0000
      2 C2          -0.5668 -13.0238  10.5987 C.ar           1 <1>                0.0000
      3 C3          -0.8413 -13.6894  11.7877 C.ar           1 <1>                0.0000
      4 C4          -0.2696 -14.9364  11.9946 C.ar           1 <1>                0.0000
      5 C5           0.5503 -15.4794  11.0225 C.ar           1 <1>                0.0000
      6 N6           0.7980 -14.8318   9.9019 N.ar           1 <1>                0.0000
      7 C7           0.2696 -13.6385   9.6551 C.ar           1 <1>                0.0000
      8 C8           0.5746 -12.9495   8.3861 C.2            1 <1>                0.0000
      9 C9           1.0839 -13.5286   7.2652 C.2            1 <1>                0.0000
     10 C10          1.2139 -12.5071   6.3040 C.2            1 <1>                0.0000
     11 C11          0.7824 -11.3668   6.8785 C.2            1 <1>                0.0000
     12 O12          0.3916 -11.6387   8.1342 O.3            1 <1>                0.0000
     13 H13         -1.4845 -13.2460  12.5333 H              1 <1>                0.0000
     14 H14         -0.4631 -15.4788  12.9083 H              1 <1>                0.0000
     15 H15          0.9953 -16.4500  11.1845 H              1 <1>                0.0000
     16 H16          1.3397 -14.5701   7.1374 H              1 <1>                0.0000
     17 H17          1.5885 -12.6168   5.2970 H              1 <1>                0.0000
     18 H18          0.7517 -10.3962   6.4059 H              1 <1>                0.0000
     19 H19         -1.6991 -11.3519  11.0020 H              1 <1>                0.0000
     20 H20         -0.9186 -11.3086   9.5150 H              1 <1>                0.0000
@<TRIPOS>BOND
    1    1    2 1     
    2    1   19 1     
    3    1   20 1     
    4    2    3 ar    
    5    2    7 ar    
    6    3    4 ar    
    7    3   13 1     
    8    4    5 ar    
    9    4   14 1     
   10    5    6 ar    
   11    5   15 1     
   12    6    7 ar    
   13    7    8 1     
   14    8    9 2     
   15    8   12 1     
   16    9   10 1     
   17    9   16 1     
   18   10   11 2     
   19   10   17 1     
   20   11   12 1     
   21   11   18 1     
@<TRIPOS>SUBSTRUCTURE
      1 ****           1
@<TRIPOS>SET
DONOR_HYDROGENS      STATIC     ATOMS    <user>   **** ""
2 19 20
ATOM$RED        STATIC     ATOMS    COLORGROUP SYSTEM
2 19 20
@<TRIPOS>COMMENT
> <Gold.Version>
2022.2.0

> <Gold.Id.Protein>
3pbl|protein|mol2

> <Gold.Protein.RotatedTorsions>
[ 1303 1298 1297 1294 ] final   45.86 input  179.99 | X-H torsion
[ 2461 2456 2455 2452 ] final   82.28 input   30.03 | X-H torsion
[ 2515 2510 2509 2506 ] final  -36.12 input  -89.99 | X-H torsion
[ 3721 3712 3711 3710 ] final  -49.17 input -179.91 | X-H torsion
[ 3841 3832 3831 3830 ] final -178.66 input -179.91 | X-H torsion
[ 3767 3762 3761 3758 ] final  136.40 input  -89.99 | X-H torsion
[ 2472 2467 2466 2463 ] final  121.74 input  -89.97 | X-H torsion

> <Gold.Protein.ActiveResidues>
 VAL82   VAL86   LEU89   PHE106  VAL107  ASP110  VAL111  MET112  CYS114  THR115 
 CYS181  SER182  ILE183  PHE188  VAL189  ILE190  SER192  SER193  SER196  TRP342 
 PHE345  PHE346  HIS349  VAL350  TYR365  THR369  GLY372  TYR373 

> <Gold.Protein.RotatedAtoms>
    3.8202  -10.2570    4.4982 H   0  0  0  0  0  0  0  0  0  0  0  0  # atno 1303 bound_to 1298
    2.1027   -8.2179    7.6307 H   0  0  0  0  0  0  0  0  0  0  0  0  # atno 2461 bound_to 2456
   -5.4294   -5.0854    8.1563 H   0  0  0  0  0  0  0  0  0  0  0  0  # atno 2472 bound_to 2467
    2.7491   -8.1176    4.3641 H   0  0  0  0  0  0  0  0  0  0  0  0  # atno 2515 bound_to 2510
   -2.7226  -17.4712   14.7200 H   0  0  0  0  0  0  0  0  0  0  0  0  # atno 3721 bound_to 3712
   -3.9082  -23.0440   11.1255 H   0  0  0  0  0  0  0  0  0  0  0  0  # atno 3767 bound_to 3762
    2.9460  -20.0348    8.4051 H   0  0  0  0  0  0  0  0  0  0  0  0  # atno 3841 bound_to 3832
    3.6371   -8.7916    3.8016 LP  0  0  0  0  0  0  0  0  0  0  0  0  # atno 4297 bound_to 1298
    4.9050   -9.0724    4.7917 LP  0  0  0  0  0  0  0  0  0  0  0  0  # atno 4298 bound_to 1298
    0.5381   -8.3034    7.1699 LP  0  0  0  0  0  0  0  0  0  0  0  0  # atno 4299 bound_to 2456
    1.0972   -9.2868    8.3475 LP  0  0  0  0  0  0  0  0  0  0  0  0  # atno 4300 bound_to 2456
    2.4902   -9.2196    5.5406 LP  0  0  0  0  0  0  0  0  0  0  0  0  # atno 4301 bound_to 2510
    2.0572   -7.6620    5.7710 LP  0  0  0  0  0  0  0  0  0  0  0  0  # atno 4302 bound_to 2510
   -3.5642  -16.5914   13.6734 LP  0  0  0  0  0  0  0  0  0  0  0  0  # atno 4306 bound_to 3712
   -2.8202  -17.9641   13.1951 LP  0  0  0  0  0  0  0  0  0  0  0  0  # atno 4307 bound_to 3712
    2.3935  -21.1422    9.4270 LP  0  0  0  0  0  0  0  0  0  0  0  0  # atno 4314 bound_to 3832
    1.4328  -19.9199    8.9275 LP  0  0  0  0  0  0  0  0  0  0  0  0  # atno 4315 bound_to 3832
   -5.1526  -22.9125   10.0763 LP  0  0  0  0  0  0  0  0  0  0  0  0  # atno 4318 bound_to 3762
   -5.0663  -21.9188   11.3693 LP  0  0  0  0  0  0  0  0  0  0  0  0  # atno 4319 bound_to 3762
   -3.8144   -4.8689    8.0508 LP  0  0  0  0  0  0  0  0  0  0  0  0  # atno 4320 bound_to 2467
   -4.4733   -5.4392    9.4319 LP  0  0  0  0  0  0  0  0  0  0  0  0  # atno 4321 bound_to 2467

> <Gold.Score>
     Score     S(PLP)   S(hbond)     S(cho)   S(metal)  DE(clash)   DE(tors)     intcor
     39.56     -35.56       0.00       1.42       0.00       0.00       0.13       0.00

> <Gold.PLP.Fitness>
39.5560

> <Gold.PLP.PLP>
-35.5624

> <Gold.PLP.part.hbond>
-0.1311

> <Gold.PLP.part.metal>
0.0000

> <Gold.PLP.part.buried>
-3.5874

> <Gold.PLP.part.nonpolar>
-33.2450

> <Gold.PLP.part.repulsive>
0.1115

> <Gold.PLP.ligand.clash>
0.0000

> <Gold.PLP.ligand.torsion>
0.1277

> <Gold.PLP.Chemscore.Hbond>
0.0000

> <Gold.PLP.Chemscore.CHOScore>
1.4163

> <Gold.PLP.Chemscore.Metal>
0.0000

> <Gold.Chemscore.Hbonds>
donor molecule, donor type, donor heavy atom, donor atom, acceptor molecule, acceptor atom, score
      L1  C     5    15       P1  1227  0.88
      L1  C    11    18       P1  2456  0.54

> <Gold.PLP.Chemscore.Internal.Correction>
0.0001

