#       Name:                EN300-125606_i001
#       Creating user name   fsindt
#       Creation time:       Tue Feb 28 12:02:20 2023


#       File generated by GOLD software.
#

@<TRIPOS>MOLECULE
EN300-125606_i001|amine_4|mol2|5092|dock5
    20    21     1
SMALL
USER_CHARGES


@<TRIPOS>ATOM
      1 N1          -0.0994 -14.0225   9.7455 N.pl3          1 <1>                0.0000
      2 C2           0.3036 -13.2561   8.6517 C.ar           1 <1>                0.0000
      3 C3           1.0851 -13.8148   7.6471 C.ar           1 <1>                0.0000
      4 C4           1.4612 -13.0134   6.5791 C.ar           1 <1>                0.0000
      5 C5           1.0532 -11.6928   6.5419 C.ar           1 <1>                0.0000
      6 N6           0.3124 -11.1822   7.5047 N.ar           1 <1>                0.0000
      7 C7          -0.0779 -11.9104   8.5446 C.ar           1 <1>                0.0000
      8 C8          -0.9072 -11.2969   9.6000 C.2            1 <1>                0.0000
      9 C9          -1.5907 -10.1248   9.4983 C.2            1 <1>                0.0000
     10 C10         -2.2396  -9.9252  10.7326 C.2            1 <1>                0.0000
     11 C11         -1.9241 -10.9734  11.5189 C.2            1 <1>                0.0000
     12 O12         -1.1240 -11.8029  10.8296 O.3            1 <1>                0.0000
     13 H13          1.3926 -14.8489   7.6970 H              1 <1>                0.0000
     14 H14          2.0686 -13.4178   5.7828 H              1 <1>                0.0000
     15 H15          1.3468 -11.0694   5.7103 H              1 <1>                0.0000
     16 H16         -1.6280  -9.4731   8.6378 H              1 <1>                0.0000
     17 H17         -2.8705  -9.0900  10.9986 H              1 <1>                0.0000
     18 H18         -2.2625 -11.1237  12.5334 H              1 <1>                0.0000
     19 H19          0.1657 -14.9533   9.8095 H              1 <1>                0.0000
     20 H20         -0.6412 -13.6235  10.4441 H              1 <1>                0.0000
@<TRIPOS>BOND
    1    1    2 1     
    2    1   19 1     
    3    1   20 1     
    4    2    3 ar    
    5    2    7 ar    
    6    3    4 ar    
    7    3   13 1     
    8    4    5 ar    
    9    4   14 1     
   10    5    6 ar    
   11    5   15 1     
   12    6    7 ar    
   13    7    8 1     
   14    8    9 2     
   15    8   12 1     
   16    9   10 1     
   17    9   16 1     
   18   10   11 2     
   19   10   17 1     
   20   11   12 1     
   21   11   18 1     
@<TRIPOS>SUBSTRUCTURE
      1 ****           1
@<TRIPOS>SET
DONOR_HYDROGENS      STATIC     ATOMS    <user>   **** ""
2 19 20
ATOM$RED        STATIC     ATOMS    COLORGROUP SYSTEM
2 19 20
@<TRIPOS>COMMENT
> <Gold.Version>
2022.2.0

> <Gold.Id.Protein>
3pbl|protein|mol2

> <Gold.Protein.RotatedTorsions>
[ 1303 1298 1297 1294 ] final -170.05 input  179.99 | X-H torsion
[ 2461 2456 2455 2452 ] final -127.49 input   30.03 | X-H torsion
[ 2515 2510 2509 2506 ] final  151.94 input  -89.99 | X-H torsion
[ 3721 3712 3711 3710 ] final  155.24 input -179.91 | X-H torsion
[ 3841 3832 3831 3830 ] final -175.24 input -179.91 | X-H torsion
[ 3767 3762 3761 3758 ] final   21.14 input  -89.99 | X-H torsion
[ 2472 2467 2466 2463 ] final  -27.03 input  -89.97 | X-H torsion

> <Gold.Protein.ActiveResidues>
 VAL82   VAL86   LEU89   PHE106  VAL107  ASP110  VAL111  MET112  CYS114  THR115 
 CYS181  SER182  ILE183  PHE188  VAL189  ILE190  SER192  SER193  SER196  TRP342 
 PHE345  PHE346  HIS349  VAL350  TYR365  THR369  GLY372  TYR373 

> <Gold.Protein.RotatedAtoms>
    4.7931   -8.7533    4.5907 H   0  0  0  0  0  0  0  0  0  0  0  0  # atno 1303 bound_to 1298
    0.6626   -9.2188    8.1279 H   0  0  0  0  0  0  0  0  0  0  0  0  # atno 2461 bound_to 2456
   -3.6421   -5.0005    8.4662 H   0  0  0  0  0  0  0  0  0  0  0  0  # atno 2472 bound_to 2467
    2.1537   -8.6724    6.0590 H   0  0  0  0  0  0  0  0  0  0  0  0  # atno 2515 bound_to 2510
   -3.2330  -16.8090   13.2476 H   0  0  0  0  0  0  0  0  0  0  0  0  # atno 3721 bound_to 3712
   -5.0957  -22.9646   10.0668 H   0  0  0  0  0  0  0  0  0  0  0  0  # atno 3767 bound_to 3762
    2.9146  -19.9965    8.3903 H   0  0  0  0  0  0  0  0  0  0  0  0  # atno 3841 bound_to 3832
    4.1453  -10.2466    4.7194 LP  0  0  0  0  0  0  0  0  0  0  0  0  # atno 4297 bound_to 1298
    3.4236   -9.1216    3.7813 LP  0  0  0  0  0  0  0  0  0  0  0  0  # atno 4298 bound_to 1298
    2.1485   -8.5561    7.9845 LP  0  0  0  0  0  0  0  0  0  0  0  0  # atno 4299 bound_to 2456
    0.9265   -8.0334    7.0358 LP  0  0  0  0  0  0  0  0  0  0  0  0  # atno 4300 bound_to 2456
    2.3187   -7.4184    5.0266 LP  0  0  0  0  0  0  0  0  0  0  0  0  # atno 4301 bound_to 2510
    2.8244   -8.9082    4.5893 LP  0  0  0  0  0  0  0  0  0  0  0  0  # atno 4302 bound_to 2510
   -2.6296  -18.2114   13.7449 LP  0  0  0  0  0  0  0  0  0  0  0  0  # atno 4306 bound_to 3712
   -3.1655  -17.1087   14.8235 LP  0  0  0  0  0  0  0  0  0  0  0  0  # atno 4307 bound_to 3712
    2.4445  -21.1501    9.4025 LP  0  0  0  0  0  0  0  0  0  0  0  0  # atno 4314 bound_to 3832
    1.4181  -19.9562    8.9691 LP  0  0  0  0  0  0  0  0  0  0  0  0  # atno 4315 bound_to 3832
   -5.1245  -21.9149   11.3174 LP  0  0  0  0  0  0  0  0  0  0  0  0  # atno 4318 bound_to 3762
   -3.9073  -22.9957   11.1865 LP  0  0  0  0  0  0  0  0  0  0  0  0  # atno 4319 bound_to 3762
   -4.9342   -5.4611    9.3520 LP  0  0  0  0  0  0  0  0  0  0  0  0  # atno 4320 bound_to 2467
   -5.1405   -4.9320    7.8209 LP  0  0  0  0  0  0  0  0  0  0  0  0  # atno 4321 bound_to 2467

> <Gold.Score>
     Score     S(PLP)   S(hbond)     S(cho)   S(metal)  DE(clash)   DE(tors)     intcor
     44.63     -42.11       0.91       0.00       0.00       0.00       0.11       0.00

> <Gold.PLP.Fitness>
44.6304

> <Gold.PLP.PLP>
-42.1103

> <Gold.PLP.part.hbond>
-1.0000

> <Gold.PLP.part.metal>
0.0000

> <Gold.PLP.part.buried>
-5.0897

> <Gold.PLP.part.nonpolar>
-36.4867

> <Gold.PLP.part.repulsive>
0.0090

> <Gold.PLP.ligand.clash>
0.0000

> <Gold.PLP.ligand.torsion>
0.1080

> <Gold.PLP.Chemscore.Hbond>
0.9120

> <Gold.PLP.Chemscore.CHOScore>
0.0000

> <Gold.PLP.Chemscore.Metal>
0.0000

> <Gold.Chemscore.Hbonds>
donor molecule, donor type, donor heavy atom, donor atom, acceptor molecule, acceptor atom, score
      P1  H  2456  2461       L1     6  0.91

> <Gold.PLP.Chemscore.Internal.Correction>
0.0001

