#       Name:                EN300-125606_i001
#       Creating user name   fsindt
#       Creation time:       Tue Feb 28 12:02:18 2023


#       File generated by GOLD software.
#

@<TRIPOS>MOLECULE
EN300-125606_i001
    20    21     1
SMALL
USER_CHARGES


@<TRIPOS>ATOM
      1 N1           0.4186   2.0896  -0.2115 N.pl3          1 <1>                0.0000
      2 C2           1.0843   0.8741  -0.0510 C.ar           1 <1>                0.0000
      3 C3           2.4734   0.8261  -0.0360 C.ar           1 <1>                0.0000
      4 C4           3.0908  -0.4055   0.1263 C.ar           1 <1>                0.0000
      5 C5           2.3161  -1.5422   0.2674 C.ar           1 <1>                0.0000
      6 N6           1.0002  -1.4751   0.2503 N.ar           1 <1>                0.0000
      7 C7           0.3630  -0.3191   0.1036 C.ar           1 <1>                0.0000
      8 C8          -1.1125  -0.2912   0.0903 C.2            1 <1>                0.0000
      9 C9          -1.9247  -1.2488  -0.4337 C.2            1 <1>                0.0000
     10 C10         -3.2489  -0.8145  -0.2282 C.2            1 <1>                0.0000
     11 C11         -3.1814   0.3739   0.4041 C.2            1 <1>                0.0000
     12 O12         -1.8896   0.6841   0.6001 O.3            1 <1>                0.0000
     13 H13          3.0586   1.7268  -0.1483 H              1 <1>                0.0000
     14 H14          4.1684  -0.4762   0.1419 H              1 <1>                0.0000
     15 H15          2.7975  -2.5008   0.3933 H              1 <1>                0.0000
     16 H16         -1.6141  -2.1645  -0.9147 H              1 <1>                0.0000
     17 H17         -4.1483  -1.3353  -0.5219 H              1 <1>                0.0000
     18 H18         -4.0261   0.9747   0.7071 H              1 <1>                0.0000
     19 H19          0.9253   2.9102  -0.3138 H              1 <1>                0.0000
     20 H20         -0.5510   2.1134  -0.2249 H              1 <1>                0.0000
@<TRIPOS>BOND
    1    1    2 1     
    2    1   19 1     
    3    1   20 1     
    4    2    3 ar    
    5    2    7 ar    
    6    3    4 ar    
    7    3   13 1     
    8    4    5 ar    
    9    4   14 1     
   10    5    6 ar    
   11    5   15 1     
   12    6    7 ar    
   13    7    8 1     
   14    8    9 2     
   15    8   12 1     
   16    9   10 1     
   17    9   16 1     
   18   10   11 2     
   19   10   17 1     
   20   11   12 1     
   21   11   18 1     
@<TRIPOS>SUBSTRUCTURE
      1 ****           1
@<TRIPOS>SET
DONOR_HYDROGENS      STATIC     ATOMS    <user>   **** ""
2 19 20
ATOM$RED        STATIC     ATOMS    COLORGROUP SYSTEM
2 19 20
