#       Name:                EN300-125606_i001
#       Creating user name   fsindt
#       Creation time:       Tue Feb 28 12:02:22 2023


#       File generated by GOLD software.
#

@<TRIPOS>MOLECULE
EN300-125606_i001|amine_4|mol2|5092|dock12
    20    21     1
SMALL
USER_CHARGES


@<TRIPOS>ATOM
      1 N1          -1.4381  -9.0600   9.9314 N.pl3          1 <1>                0.0000
      2 C2          -2.5198  -9.9355   9.8332 C.ar           1 <1>                0.0000
      3 C3          -3.7933  -9.5306  10.2159 C.ar           1 <1>                0.0000
      4 C4          -4.8378 -10.4363  10.1002 C.ar           1 <1>                0.0000
      5 C5          -4.5875 -11.7055   9.6121 C.ar           1 <1>                0.0000
      6 N6          -3.3726 -12.0698   9.2547 N.ar           1 <1>                0.0000
      7 C7          -2.3415 -11.2371   9.3413 C.ar           1 <1>                0.0000
      8 C8          -0.9979 -11.6879   8.9296 C.2            1 <1>                0.0000
      9 C9          -0.6851 -12.9145   8.4306 C.2            1 <1>                0.0000
     10 C10          0.7003 -12.9075   8.1756 C.2            1 <1>                0.0000
     11 C11          1.1607 -11.6907   8.5276 C.2            1 <1>                0.0000
     12 O12          0.1313 -10.9547   8.9771 O.3            1 <1>                0.0000
     13 H13         -3.9657  -8.5341  10.5948 H              1 <1>                0.0000
     14 H14         -5.8388 -10.1522  10.3895 H              1 <1>                0.0000
     15 H15         -5.4012 -12.4102   9.5227 H              1 <1>                0.0000
     16 H16         -1.3671 -13.7349   8.2628 H              1 <1>                0.0000
     17 H17          1.2834 -13.7231   7.7741 H              1 <1>                0.0000
     18 H18          2.1865 -11.3607   8.4556 H              1 <1>                0.0000
     19 H19         -1.5713  -8.1606  10.2689 H              1 <1>                0.0000
     20 H20         -0.5521  -9.3522   9.6659 H              1 <1>                0.0000
@<TRIPOS>BOND
    1    1    2 1     
    2    1   19 1     
    3    1   20 1     
    4    2    3 ar    
    5    2    7 ar    
    6    3    4 ar    
    7    3   13 1     
    8    4    5 ar    
    9    4   14 1     
   10    5    6 ar    
   11    5   15 1     
   12    6    7 ar    
   13    7    8 1     
   14    8    9 2     
   15    8   12 1     
   16    9   10 1     
   17    9   16 1     
   18   10   11 2     
   19   10   17 1     
   20   11   12 1     
   21   11   18 1     
@<TRIPOS>SUBSTRUCTURE
      1 ****           1
@<TRIPOS>SET
DONOR_HYDROGENS      STATIC     ATOMS    <user>   **** ""
2 19 20
ATOM$RED        STATIC     ATOMS    COLORGROUP SYSTEM
2 19 20
@<TRIPOS>COMMENT
> <Gold.Version>
2022.2.0

> <Gold.Id.Protein>
3pbl|protein|mol2

> <Gold.Protein.RotatedTorsions>
[ 1303 1298 1297 1294 ] final  -79.95 input  179.99 | X-H torsion
[ 2461 2456 2455 2452 ] final -120.55 input   30.03 | X-H torsion
[ 2515 2510 2509 2506 ] final  -10.21 input  -89.99 | X-H torsion
[ 3721 3712 3711 3710 ] final  117.47 input -179.91 | X-H torsion
[ 3841 3832 3831 3830 ] final   61.45 input -179.91 | X-H torsion
[ 3767 3762 3761 3758 ] final  162.27 input  -89.99 | X-H torsion
[ 2472 2467 2466 2463 ] final   32.24 input  -89.97 | X-H torsion

> <Gold.Protein.ActiveResidues>
 VAL82   VAL86   LEU89   PHE106  VAL107  ASP110  VAL111  MET112  CYS114  THR115 
 CYS181  SER182  ILE183  PHE188  VAL189  ILE190  SER192  SER193  SER196  TRP342 
 PHE345  PHE346  HIS349  VAL350  TYR365  THR369  GLY372  TYR373 

> <Gold.Protein.RotatedAtoms>
    3.7028   -8.7253    3.8222 H   0  0  0  0  0  0  0  0  0  0  0  0  # atno 1303 bound_to 1298
    0.5816   -9.1778    8.0587 H   0  0  0  0  0  0  0  0  0  0  0  0  # atno 2461 bound_to 2456
   -4.1994   -4.8020    7.7454 H   0  0  0  0  0  0  0  0  0  0  0  0  # atno 2472 bound_to 2467
    2.6081   -7.7465    4.5087 H   0  0  0  0  0  0  0  0  0  0  0  0  # atno 2515 bound_to 2510
   -2.9900  -17.2665   13.0327 H   0  0  0  0  0  0  0  0  0  0  0  0  # atno 3721 bound_to 3712
   -3.9666  -22.7516   11.4243 H   0  0  0  0  0  0  0  0  0  0  0  0  # atno 3767 bound_to 3762
    2.4905  -20.9466    9.5035 H   0  0  0  0  0  0  0  0  0  0  0  0  # atno 3841 bound_to 3832
    4.9117   -9.1598    4.8303 LP  0  0  0  0  0  0  0  0  0  0  0  0  # atno 4297 bound_to 1298
    3.7478  -10.2365    4.4393 LP  0  0  0  0  0  0  0  0  0  0  0  0  # atno 4298 bound_to 1298
    2.1235   -8.6392    8.0588 LP  0  0  0  0  0  0  0  0  0  0  0  0  # atno 4299 bound_to 2456
    1.0325   -7.9914    7.0308 LP  0  0  0  0  0  0  0  0  0  0  0  0  # atno 4300 bound_to 2456
    2.6589   -9.2454    5.1539 LP  0  0  0  0  0  0  0  0  0  0  0  0  # atno 4301 bound_to 2510
    2.0296   -8.0075    6.0130 LP  0  0  0  0  0  0  0  0  0  0  0  0  # atno 4302 bound_to 2510
   -2.6363  -18.1049   14.3555 LP  0  0  0  0  0  0  0  0  0  0  0  0  # atno 4306 bound_to 3712
   -3.4394  -16.6870   14.4610 LP  0  0  0  0  0  0  0  0  0  0  0  0  # atno 4307 bound_to 3712
    1.4472  -19.8909    8.8926 LP  0  0  0  0  0  0  0  0  0  0  0  0  # atno 4314 bound_to 3832
    2.9052  -20.1179    8.1931 LP  0  0  0  0  0  0  0  0  0  0  0  0  # atno 4315 bound_to 3832
   -4.8166  -23.1672   10.0933 LP  0  0  0  0  0  0  0  0  0  0  0  0  # atno 4318 bound_to 3762
   -5.3439  -21.9563   11.0536 LP  0  0  0  0  0  0  0  0  0  0  0  0  # atno 4319 bound_to 3762
   -4.0135   -5.3332    9.2783 LP  0  0  0  0  0  0  0  0  0  0  0  0  # atno 4320 bound_to 2467
   -5.5039   -5.2582    8.6152 LP  0  0  0  0  0  0  0  0  0  0  0  0  # atno 4321 bound_to 2467

> <Gold.Score>
     Score     S(PLP)   S(hbond)     S(cho)   S(metal)  DE(clash)   DE(tors)     intcor
     44.53     -38.71       1.94       0.00       0.00       0.00       0.00       0.00

> <Gold.PLP.Fitness>
44.5317

> <Gold.PLP.PLP>
-38.7059

> <Gold.PLP.part.hbond>
-2.1789

> <Gold.PLP.part.metal>
0.0000

> <Gold.PLP.part.buried>
2.4837

> <Gold.PLP.part.nonpolar>
-40.2062

> <Gold.PLP.part.repulsive>
0.1566

> <Gold.PLP.ligand.clash>
0.0000

> <Gold.PLP.ligand.torsion>
0.0001

> <Gold.PLP.Chemscore.Hbond>
1.9420

> <Gold.PLP.Chemscore.CHOScore>
0.0000

> <Gold.PLP.Chemscore.Metal>
0.0000

> <Gold.Chemscore.Hbonds>
donor molecule, donor type, donor heavy atom, donor atom, acceptor molecule, acceptor atom, score
      L1  H     1    19       P1  2398  0.99
      P1  H  2456  2461       L1    12  0.95

> <Gold.PLP.Chemscore.Internal.Correction>
0.0001

