#       Name:                EN300-125606_i001
#       Creating user name   fsindt
#       Creation time:       Tue Feb 28 12:02:19 2023


#       File generated by GOLD software.
#

@<TRIPOS>MOLECULE
EN300-125606_i001|amine_4|mol2|5092|dock2
    20    21     1
SMALL
USER_CHARGES


@<TRIPOS>ATOM
      1 N1          -0.5242 -13.5558  10.7617 N.pl3          1 <1>                0.0000
      2 C2          -0.9012 -12.2439  10.4738 C.ar           1 <1>                0.0000
      3 C3          -1.6827 -11.5212  11.3677 C.ar           1 <1>                0.0000
      4 C4          -2.0326 -10.2199  11.0380 C.ar           1 <1>                0.0000
      5 C5          -1.5993  -9.6809   9.8407 C.ar           1 <1>                0.0000
      6 N6          -0.8590 -10.3830   9.0068 N.ar           1 <1>                0.0000
      7 C7          -0.4932 -11.6303   9.2802 C.ar           1 <1>                0.0000
      8 C8           0.3366 -12.3794   8.3167 C.2            1 <1>                0.0000
      9 C9           0.7782 -11.9182   7.1152 C.2            1 <1>                0.0000
     10 C10          1.5294 -12.9580   6.5329 C.2            1 <1>                0.0000
     11 C11          1.5099 -13.9916   7.3975 C.2            1 <1>                0.0000
     12 O12          0.7934 -13.6366   8.4764 O.3            1 <1>                0.0000
     13 H13         -2.0102 -11.9626  12.2974 H              1 <1>                0.0000
     14 H14         -2.6392  -9.6324  11.7113 H              1 <1>                0.0000
     15 H15         -1.8724  -8.6678   9.5845 H              1 <1>                0.0000
     16 H16          0.5889 -10.9436   6.6899 H              1 <1>                0.0000
     17 H17          2.0268 -12.9318   5.5746 H              1 <1>                0.0000
     18 H18          1.9941 -14.9455   7.2493 H              1 <1>                0.0000
     19 H19         -0.8076 -13.9710  11.5912 H              1 <1>                0.0000
     20 H20          0.0179 -14.0543  10.1303 H              1 <1>                0.0000
@<TRIPOS>BOND
    1    1    2 1     
    2    1   19 1     
    3    1   20 1     
    4    2    3 ar    
    5    2    7 ar    
    6    3    4 ar    
    7    3   13 1     
    8    4    5 ar    
    9    4   14 1     
   10    5    6 ar    
   11    5   15 1     
   12    6    7 ar    
   13    7    8 1     
   14    8    9 2     
   15    8   12 1     
   16    9   10 1     
   17    9   16 1     
   18   10   11 2     
   19   10   17 1     
   20   11   12 1     
   21   11   18 1     
@<TRIPOS>SUBSTRUCTURE
      1 ****           1
@<TRIPOS>SET
DONOR_HYDROGENS      STATIC     ATOMS    <user>   **** ""
2 19 20
ATOM$RED        STATIC     ATOMS    COLORGROUP SYSTEM
2 19 20
@<TRIPOS>COMMENT
> <Gold.Version>
2022.2.0

> <Gold.Id.Protein>
3pbl|protein|mol2

> <Gold.Protein.RotatedTorsions>
[ 1303 1298 1297 1294 ] final -150.83 input  179.99 | X-H torsion
[ 2461 2456 2455 2452 ] final -125.07 input   30.03 | X-H torsion
[ 2515 2510 2509 2506 ] final  -75.69 input  -89.99 | X-H torsion
[ 3721 3712 3711 3710 ] final   87.20 input -179.91 | X-H torsion
[ 3841 3832 3831 3830 ] final  131.80 input -179.91 | X-H torsion
[ 3767 3762 3761 3758 ] final  -68.48 input  -89.99 | X-H torsion
[ 2472 2467 2466 2463 ] final  120.51 input  -89.97 | X-H torsion

> <Gold.Protein.ActiveResidues>
 VAL82   VAL86   LEU89   PHE106  VAL107  ASP110  VAL111  MET112  CYS114  THR115 
 CYS181  SER182  ILE183  PHE188  VAL189  ILE190  SER192  SER193  SER196  TRP342 
 PHE345  PHE346  HIS349  VAL350  TYR365  THR369  GLY372  TYR373 

> <Gold.Protein.RotatedAtoms>
    4.6184   -8.5740    4.3998 H   0  0  0  0  0  0  0  0  0  0  0  0  # atno 1303 bound_to 1298
    0.6334   -9.2055    8.1044 H   0  0  0  0  0  0  0  0  0  0  0  0  # atno 2461 bound_to 2456
   -5.4211   -5.0784    8.1394 H   0  0  0  0  0  0  0  0  0  0  0  0  # atno 2472 bound_to 2467
    2.8358   -8.7396    4.4767 H   0  0  0  0  0  0  0  0  0  0  0  0  # atno 2515 bound_to 2510
   -2.7636  -17.6476   13.1220 H   0  0  0  0  0  0  0  0  0  0  0  0  # atno 3721 bound_to 3712
   -5.4143  -22.0029   10.9271 H   0  0  0  0  0  0  0  0  0  0  0  0  # atno 3767 bound_to 3762
    3.1233  -20.6099    8.8102 H   0  0  0  0  0  0  0  0  0  0  0  0  # atno 3841 bound_to 3832
    4.4044  -10.1280    4.8534 LP  0  0  0  0  0  0  0  0  0  0  0  0  # atno 4297 bound_to 1298
    3.3392   -9.4196    3.8384 LP  0  0  0  0  0  0  0  0  0  0  0  0  # atno 4298 bound_to 1298
    2.1412   -8.5851    8.0109 LP  0  0  0  0  0  0  0  0  0  0  0  0  # atno 4299 bound_to 2456
    0.9630   -8.0178    7.0329 LP  0  0  0  0  0  0  0  0  0  0  0  0  # atno 4300 bound_to 2456
    2.2225   -8.8489    5.9859 LP  0  0  0  0  0  0  0  0  0  0  0  0  # atno 4301 bound_to 2510
    2.2383   -7.4105    5.2131 LP  0  0  0  0  0  0  0  0  0  0  0  0  # atno 4302 bound_to 2510
   -2.7810  -17.7957   14.7206 LP  0  0  0  0  0  0  0  0  0  0  0  0  # atno 4306 bound_to 3712
   -3.5560  -16.5561   13.9929 LP  0  0  0  0  0  0  0  0  0  0  0  0  # atno 4307 bound_to 3712
    1.6927  -20.7631    9.5215 LP  0  0  0  0  0  0  0  0  0  0  0  0  # atno 4314 bound_to 3832
    1.9288  -19.6347    8.3650 LP  0  0  0  0  0  0  0  0  0  0  0  0  # atno 4315 bound_to 3832
   -4.0258  -22.6380   11.5064 LP  0  0  0  0  0  0  0  0  0  0  0  0  # atno 4318 bound_to 3762
   -4.6876  -23.2339   10.1376 LP  0  0  0  0  0  0  0  0  0  0  0  0  # atno 4319 bound_to 3762
   -3.8027   -4.8734    8.0667 LP  0  0  0  0  0  0  0  0  0  0  0  0  # atno 4320 bound_to 2467
   -4.4933   -5.4417    9.4330 LP  0  0  0  0  0  0  0  0  0  0  0  0  # atno 4321 bound_to 2467

> <Gold.Score>
     Score     S(PLP)   S(hbond)     S(cho)   S(metal)  DE(clash)   DE(tors)     intcor
     49.13     -40.75       0.99       1.80       0.00       0.00       0.00       0.00

> <Gold.PLP.Fitness>
49.1287

> <Gold.PLP.PLP>
-40.7484

> <Gold.PLP.part.hbond>
-1.0000

> <Gold.PLP.part.metal>
0.0000

> <Gold.PLP.part.buried>
-5.4277

> <Gold.PLP.part.nonpolar>
-36.8594

> <Gold.PLP.part.repulsive>
0.1049

> <Gold.PLP.ligand.clash>
0.0000

> <Gold.PLP.ligand.torsion>
0.0009

> <Gold.PLP.Chemscore.Hbond>
0.9913

> <Gold.PLP.Chemscore.CHOScore>
1.8027

> <Gold.PLP.Chemscore.Metal>
0.0000

> <Gold.Chemscore.Hbonds>
donor molecule, donor type, donor heavy atom, donor atom, acceptor molecule, acceptor atom, score
      P1  H  2456  2461       L1     6  0.99
      L1  C     5    15       P1  2398  1.00
      L1  C    11    18       P1  1223  0.80

> <Gold.PLP.Chemscore.Internal.Correction>
0.0002

