#       Name:                EN300-125606_i001
#       Creating user name   fsindt
#       Creation time:       Tue Feb 28 12:02:24 2023


#       File generated by GOLD software.
#

@<TRIPOS>MOLECULE
EN300-125606_i001|amine_4|mol2|5092|dock18
    20    21     1
SMALL
USER_CHARGES


@<TRIPOS>ATOM
      1 N1           0.8501 -10.4926  10.1412 N.pl3          1 <1>                0.0000
      2 C2          -0.5331 -10.6482  10.0478 C.ar           1 <1>                0.0000
      3 C3          -1.3892  -9.7023  10.5995 C.ar           1 <1>                0.0000
      4 C4          -2.7573  -9.9000  10.4816 C.ar           1 <1>                0.0000
      5 C5          -3.2290 -11.0218   9.8249 C.ar           1 <1>                0.0000
      6 N6          -2.4004 -11.9069   9.3089 N.ar           1 <1>                0.0000
      7 C7          -1.0830 -11.7590   9.3908 C.ar           1 <1>                0.0000
      8 C8          -0.1923 -12.7757   8.7981 C.2            1 <1>                0.0000
      9 C9           0.6134 -12.5985   7.7161 C.2            1 <1>                0.0000
     10 C10          1.2800 -13.8209   7.5023 C.2            1 <1>                0.0000
     11 C11          0.8536 -14.6752   8.4534 C.2            1 <1>                0.0000
     12 O12         -0.0313 -14.0388   9.2379 O.3            1 <1>                0.0000
     13 H13         -0.9985  -8.8336  11.1084 H              1 <1>                0.0000
     14 H14         -3.4486  -9.1834  10.8998 H              1 <1>                0.0000
     15 H15         -4.2942 -11.1752   9.7339 H              1 <1>                0.0000
     16 H16          0.7206 -11.6954   7.1336 H              1 <1>                0.0000
     17 H17          1.9973 -14.0333   6.7233 H              1 <1>                0.0000
     18 H18          1.1738 -15.7001   8.5685 H              1 <1>                0.0000
     19 H19          1.2217  -9.7195  10.5940 H              1 <1>                0.0000
     20 H20          1.4402 -11.1596   9.7570 H              1 <1>                0.0000
@<TRIPOS>BOND
    1    1    2 1     
    2    1   19 1     
    3    1   20 1     
    4    2    3 ar    
    5    2    7 ar    
    6    3    4 ar    
    7    3   13 1     
    8    4    5 ar    
    9    4   14 1     
   10    5    6 ar    
   11    5   15 1     
   12    6    7 ar    
   13    7    8 1     
   14    8    9 2     
   15    8   12 1     
   16    9   10 1     
   17    9   16 1     
   18   10   11 2     
   19   10   17 1     
   20   11   12 1     
   21   11   18 1     
@<TRIPOS>SUBSTRUCTURE
      1 ****           1
@<TRIPOS>SET
DONOR_HYDROGENS      STATIC     ATOMS    <user>   **** ""
2 19 20
ATOM$RED        STATIC     ATOMS    COLORGROUP SYSTEM
2 19 20
@<TRIPOS>COMMENT
> <Gold.Version>
2022.2.0

> <Gold.Id.Protein>
3pbl|protein|mol2

> <Gold.Protein.RotatedTorsions>
[ 1303 1298 1297 1294 ] final  -81.38 input  179.99 | X-H torsion
[ 2461 2456 2455 2452 ] final -129.90 input   30.03 | X-H torsion
[ 2515 2510 2509 2506 ] final  -47.09 input  -89.99 | X-H torsion
[ 3721 3712 3711 3710 ] final   -7.97 input -179.91 | X-H torsion
[ 3841 3832 3831 3830 ] final -122.54 input -179.91 | X-H torsion
[ 3767 3762 3761 3758 ] final -170.37 input  -89.99 | X-H torsion
[ 2472 2467 2466 2463 ] final   85.28 input  -89.97 | X-H torsion

> <Gold.Protein.ActiveResidues>
 VAL82   VAL86   LEU89   PHE106  VAL107  ASP110  VAL111  MET112  CYS114  THR115 
 CYS181  SER182  ILE183  PHE188  VAL189  ILE190  SER192  SER193  SER196  TRP342 
 PHE345  PHE346  HIS349  VAL350  TYR365  THR369  GLY372  TYR373 

> <Gold.Protein.RotatedAtoms>
    3.7197   -8.7100    3.8280 H   0  0  0  0  0  0  0  0  0  0  0  0  # atno 1303 bound_to 1298
    0.6928   -9.2309    8.1506 H   0  0  0  0  0  0  0  0  0  0  0  0  # atno 2461 bound_to 2456
   -5.0357   -4.8989    7.7588 H   0  0  0  0  0  0  0  0  0  0  0  0  # atno 2472 bound_to 2467
    2.7909   -8.2925    4.3545 H   0  0  0  0  0  0  0  0  0  0  0  0  # atno 2515 bound_to 2510
   -2.5077  -17.9040   14.3486 H   0  0  0  0  0  0  0  0  0  0  0  0  # atno 3721 bound_to 3712
   -4.1895  -22.4161   11.6157 H   0  0  0  0  0  0  0  0  0  0  0  0  # atno 3767 bound_to 3762
    2.2583  -19.6002    8.4418 H   0  0  0  0  0  0  0  0  0  0  0  0  # atno 3841 bound_to 3832
    4.9121   -9.1816    4.8390 LP  0  0  0  0  0  0  0  0  0  0  0  0  # atno 4297 bound_to 1298
    3.7306  -10.2299    4.4248 LP  0  0  0  0  0  0  0  0  0  0  0  0  # atno 4298 bound_to 1298
    2.1541   -8.5274    7.9578 LP  0  0  0  0  0  0  0  0  0  0  0  0  # atno 4299 bound_to 2456
    0.8907   -8.0500    7.0399 LP  0  0  0  0  0  0  0  0  0  0  0  0  # atno 4300 bound_to 2456
    2.4132   -9.1534    5.6894 LP  0  0  0  0  0  0  0  0  0  0  0  0  # atno 4301 bound_to 2510
    2.0925   -7.5533    5.6318 LP  0  0  0  0  0  0  0  0  0  0  0  0  # atno 4302 bound_to 2510
   -3.4833  -16.6289   14.3411 LP  0  0  0  0  0  0  0  0  0  0  0  0  # atno 4306 bound_to 3712
   -3.1492  -17.4270   12.9562 LP  0  0  0  0  0  0  0  0  0  0  0  0  # atno 4307 bound_to 3712
    3.0470  -20.9399    8.8412 LP  0  0  0  0  0  0  0  0  0  0  0  0  # atno 4314 bound_to 3832
    1.5737  -20.6242    9.4708 LP  0  0  0  0  0  0  0  0  0  0  0  0  # atno 4315 bound_to 3832
   -4.4394  -23.3177   10.2772 LP  0  0  0  0  0  0  0  0  0  0  0  0  # atno 4318 bound_to 3762
   -5.4983  -22.1411   10.6785 LP  0  0  0  0  0  0  0  0  0  0  0  0  # atno 4319 bound_to 3762
   -3.6346   -5.0418    8.5853 LP  0  0  0  0  0  0  0  0  0  0  0  0  # atno 4320 bound_to 2467
   -5.0467   -5.4529    9.2949 LP  0  0  0  0  0  0  0  0  0  0  0  0  # atno 4321 bound_to 2467

> <Gold.Score>
     Score     S(PLP)   S(hbond)     S(cho)   S(metal)  DE(clash)   DE(tors)     intcor
     41.48     -41.08       0.00       1.00       0.00       0.00       1.30       0.00

> <Gold.PLP.Fitness>
41.4779

> <Gold.PLP.PLP>
-41.0805

> <Gold.PLP.part.hbond>
-1.0000

> <Gold.PLP.part.metal>
0.0000

> <Gold.PLP.part.buried>
-1.8928

> <Gold.PLP.part.nonpolar>
-39.1358

> <Gold.PLP.part.repulsive>
0.0297

> <Gold.PLP.ligand.clash>
0.0000

> <Gold.PLP.ligand.torsion>
1.3010

> <Gold.PLP.Chemscore.Hbond>
0.0000

> <Gold.PLP.Chemscore.CHOScore>
0.9998

> <Gold.PLP.Chemscore.Metal>
0.0000

> <Gold.Chemscore.Hbonds>
donor molecule, donor type, donor heavy atom, donor atom, acceptor molecule, acceptor atom, score
      L1  C    11    18       P1  1227  1.00

> <Gold.PLP.Chemscore.Internal.Correction>
0.0001

