#       Name:                EN300-125606_i001
#       Creating user name   fsindt
#       Creation time:       Tue Feb 28 12:02:19 2023


#       File generated by GOLD software.
#

@<TRIPOS>MOLECULE
EN300-125606_i001|amine_4|mol2|5092|dock3
    20    21     1
SMALL
USER_CHARGES


@<TRIPOS>ATOM
      1 N1           0.8881 -10.8406   7.2091 N.pl3          1 <1>                0.0000
      2 C2           0.6278 -12.1856   7.4723 C.ar           1 <1>                0.0000
      3 C3           1.4115 -13.1817   6.9017 C.ar           1 <1>                0.0000
      4 C4           1.1143 -14.5051   7.1928 C.ar           1 <1>                0.0000
      5 C5           0.0566 -14.7961   8.0346 C.ar           1 <1>                0.0000
      6 N6          -0.6744 -13.8368   8.5654 N.ar           1 <1>                0.0000
      7 C7          -0.4258 -12.5551   8.3217 C.ar           1 <1>                0.0000
      8 C8          -1.2708 -11.5138   8.9380 C.2            1 <1>                0.0000
      9 C9          -2.5214 -11.6952   9.4423 C.2            1 <1>                0.0000
     10 C10         -2.9493 -10.4433   9.9260 C.2            1 <1>                0.0000
     11 C11         -1.9503  -9.5684   9.6959 C.2            1 <1>                0.0000
     12 O12         -0.9357 -10.2196   9.1043 O.3            1 <1>                0.0000
     13 H13          2.2328 -12.9312   6.2466 H              1 <1>                0.0000
     14 H14          1.7043 -15.3021   6.7649 H              1 <1>                0.0000
     15 H15         -0.1744 -15.8267   8.2604 H              1 <1>                0.0000
     16 H16         -3.0785 -12.6202   9.4665 H              1 <1>                0.0000
     17 H17         -3.8985 -10.2257  10.3929 H              1 <1>                0.0000
     18 H18         -1.9619  -8.5187   9.9495 H              1 <1>                0.0000
     19 H19          1.6211 -10.5940   6.6237 H              1 <1>                0.0000
     20 H20          0.3336 -10.1521   7.6083 H              1 <1>                0.0000
@<TRIPOS>BOND
    1    1    2 1     
    2    1   19 1     
    3    1   20 1     
    4    2    3 ar    
    5    2    7 ar    
    6    3    4 ar    
    7    3   13 1     
    8    4    5 ar    
    9    4   14 1     
   10    5    6 ar    
   11    5   15 1     
   12    6    7 ar    
   13    7    8 1     
   14    8    9 2     
   15    8   12 1     
   16    9   10 1     
   17    9   16 1     
   18   10   11 2     
   19   10   17 1     
   20   11   12 1     
   21   11   18 1     
@<TRIPOS>SUBSTRUCTURE
      1 ****           1
@<TRIPOS>SET
DONOR_HYDROGENS      STATIC     ATOMS    <user>   **** ""
2 19 20
ATOM$RED        STATIC     ATOMS    COLORGROUP SYSTEM
2 19 20
@<TRIPOS>COMMENT
> <Gold.Version>
2022.2.0

> <Gold.Id.Protein>
3pbl|protein|mol2

> <Gold.Protein.RotatedTorsions>
[ 1303 1298 1297 1294 ] final   52.69 input  179.99 | X-H torsion
[ 2461 2456 2455 2452 ] final -125.43 input   30.03 | X-H torsion
[ 2515 2510 2509 2506 ] final  -78.56 input  -89.99 | X-H torsion
[ 3721 3712 3711 3710 ] final  -15.23 input -179.91 | X-H torsion
[ 3841 3832 3831 3830 ] final   73.26 input -179.91 | X-H torsion
[ 3767 3762 3761 3758 ] final -101.00 input  -89.99 | X-H torsion
[ 2472 2467 2466 2463 ] final  -66.40 input  -89.97 | X-H torsion

> <Gold.Protein.ActiveResidues>
 VAL82   VAL86   LEU89   PHE106  VAL107  ASP110  VAL111  MET112  CYS114  THR115 
 CYS181  SER182  ILE183  PHE188  VAL189  ILE190  SER192  SER193  SER196  TRP342 
 PHE345  PHE346  HIS349  VAL350  TYR365  THR369  GLY372  TYR373 

> <Gold.Protein.RotatedAtoms>
    3.9094  -10.2700    4.5652 H   0  0  0  0  0  0  0  0  0  0  0  0  # atno 1303 bound_to 1298
    0.6376   -9.2075    8.1080 H   0  0  0  0  0  0  0  0  0  0  0  0  # atno 2461 bound_to 2456
   -3.7775   -5.2240    9.0450 H   0  0  0  0  0  0  0  0  0  0  0  0  # atno 2472 bound_to 2467
    2.8348   -8.7806    4.4999 H   0  0  0  0  0  0  0  0  0  0  0  0  # atno 2515 bound_to 2510
   -2.5333  -17.8455   14.4378 H   0  0  0  0  0  0  0  0  0  0  0  0  # atno 3721 bound_to 3712
   -5.0981  -21.9154   11.3410 H   0  0  0  0  0  0  0  0  0  0  0  0  # atno 3767 bound_to 3762
    2.6456  -20.9569    9.4167 H   0  0  0  0  0  0  0  0  0  0  0  0  # atno 3841 bound_to 3832
    3.5660   -8.8771    3.7854 LP  0  0  0  0  0  0  0  0  0  0  0  0  # atno 4297 bound_to 1298
    4.8868   -8.9739    4.7408 LP  0  0  0  0  0  0  0  0  0  0  0  0  # atno 4298 bound_to 1298
    2.1424   -8.5808    8.0070 LP  0  0  0  0  0  0  0  0  0  0  0  0  # atno 4299 bound_to 2456
    0.9575   -8.0200    7.0333 LP  0  0  0  0  0  0  0  0  0  0  0  0  # atno 4300 bound_to 2456
    2.2055   -8.8098    6.0062 LP  0  0  0  0  0  0  0  0  0  0  0  0  # atno 4301 bound_to 2510
    2.2563   -7.4085    5.1695 LP  0  0  0  0  0  0  0  0  0  0  0  0  # atno 4302 bound_to 2510
   -3.5145  -16.5918   14.2300 LP  0  0  0  0  0  0  0  0  0  0  0  0  # atno 4306 bound_to 3712
   -3.0885  -17.5317   12.9644 LP  0  0  0  0  0  0  0  0  0  0  0  0  # atno 4307 bound_to 3712
    1.4007  -20.0182    9.0354 LP  0  0  0  0  0  0  0  0  0  0  0  0  # atno 4314 bound_to 3832
    2.7726  -19.9787    8.1505 LP  0  0  0  0  0  0  0  0  0  0  0  0  # atno 4315 bound_to 3832
   -3.9073  -23.0180   11.1594 LP  0  0  0  0  0  0  0  0  0  0  0  0  # atno 4318 bound_to 3762
   -5.1221  -22.9414   10.0708 LP  0  0  0  0  0  0  0  0  0  0  0  0  # atno 4319 bound_to 3762
   -5.4008   -5.3614    8.9329 LP  0  0  0  0  0  0  0  0  0  0  0  0  # atno 4320 bound_to 2467
   -4.5384   -4.8082    7.6613 LP  0  0  0  0  0  0  0  0  0  0  0  0  # atno 4321 bound_to 2467

> <Gold.Score>
     Score     S(PLP)   S(hbond)     S(cho)   S(metal)  DE(clash)   DE(tors)     intcor
     46.16     -40.65       0.96       1.00       0.00       0.00       0.18       0.00

> <Gold.PLP.Fitness>
46.1573

> <Gold.PLP.PLP>
-40.6469

> <Gold.PLP.part.hbond>
-1.9632

> <Gold.PLP.part.metal>
0.0000

> <Gold.PLP.part.buried>
-1.0046

> <Gold.PLP.part.nonpolar>
-38.5410

> <Gold.PLP.part.repulsive>
0.0408

> <Gold.PLP.ligand.clash>
0.0000

> <Gold.PLP.ligand.torsion>
0.1830

> <Gold.PLP.Chemscore.Hbond>
0.9588

> <Gold.PLP.Chemscore.CHOScore>
1.0000

> <Gold.PLP.Chemscore.Metal>
0.0000

> <Gold.Chemscore.Hbonds>
donor molecule, donor type, donor heavy atom, donor atom, acceptor molecule, acceptor atom, score
      P1  H  2456  2461       L1    12  0.96
      L1  C    11    18       P1  2398  1.00

> <Gold.PLP.Chemscore.Internal.Correction>
0.0002

