#       Name:                EN300-125606_i001
#       Creating user name   fsindt
#       Creation time:       Tue Feb 28 12:02:20 2023


#       File generated by GOLD software.
#

@<TRIPOS>MOLECULE
EN300-125606_i001|amine_4|mol2|5092|dock7
    20    21     1
SMALL
USER_CHARGES


@<TRIPOS>ATOM
      1 N1          -0.0769 -10.4568   7.4850 N.pl3          1 <1>                0.0000
      2 C2           0.0820 -11.7206   8.0538 C.ar           1 <1>                0.0000
      3 C3           1.1451 -12.5347   7.6804 C.ar           1 <1>                0.0000
      4 C4           1.2618 -13.7834   8.2735 C.ar           1 <1>                0.0000
      5 C5           0.3269 -14.1819   9.2111 C.ar           1 <1>                0.0000
      6 N6          -0.6739 -13.3950   9.5511 N.ar           1 <1>                0.0000
      7 C7          -0.8250 -12.1888   9.0160 C.ar           1 <1>                0.0000
      8 C8          -1.9612 -11.3411   9.4268 C.2            1 <1>                0.0000
      9 C9          -3.1094 -11.7742  10.0143 C.2            1 <1>                0.0000
     10 C10         -3.9090 -10.6350  10.2309 C.2            1 <1>                0.0000
     11 C11         -3.2178  -9.5736   9.7702 C.2            1 <1>                0.0000
     12 O12         -2.0393 -10.0031   9.2905 O.3            1 <1>                0.0000
     13 H13          1.8635 -12.2029   6.9455 H              1 <1>                0.0000
     14 H14          2.0764 -14.4394   8.0046 H              1 <1>                0.0000
     15 H15          0.4181 -15.1543   9.6721 H              1 <1>                0.0000
     16 H16         -3.3595 -12.7945  10.2655 H              1 <1>                0.0000
     17 H17         -4.8906 -10.6156  10.6811 H              1 <1>                0.0000
     18 H18         -3.5540  -8.5475   9.7881 H              1 <1>                0.0000
     19 H19          0.5573 -10.1395   6.8232 H              1 <1>                0.0000
     20 H20         -0.8240  -9.8969   7.7483 H              1 <1>                0.0000
@<TRIPOS>BOND
    1    1    2 1     
    2    1   19 1     
    3    1   20 1     
    4    2    3 ar    
    5    2    7 ar    
    6    3    4 ar    
    7    3   13 1     
    8    4    5 ar    
    9    4   14 1     
   10    5    6 ar    
   11    5   15 1     
   12    6    7 ar    
   13    7    8 1     
   14    8    9 2     
   15    8   12 1     
   16    9   10 1     
   17    9   16 1     
   18   10   11 2     
   19   10   17 1     
   20   11   12 1     
   21   11   18 1     
@<TRIPOS>SUBSTRUCTURE
      1 ****           1
@<TRIPOS>SET
DONOR_HYDROGENS      STATIC     ATOMS    <user>   **** ""
2 19 20
ATOM$RED        STATIC     ATOMS    COLORGROUP SYSTEM
2 19 20
@<TRIPOS>COMMENT
> <Gold.Version>
2022.2.0

> <Gold.Id.Protein>
3pbl|protein|mol2

> <Gold.Protein.RotatedTorsions>
[ 1303 1298 1297 1294 ] final  -71.26 input  179.99 | X-H torsion
[ 2461 2456 2455 2452 ] final   52.52 input   30.03 | X-H torsion
[ 2515 2510 2509 2506 ] final -164.53 input  -89.99 | X-H torsion
[ 3721 3712 3711 3710 ] final  102.74 input -179.91 | X-H torsion
[ 3841 3832 3831 3830 ] final -179.91 input -179.91 | X-H torsion
[ 3767 3762 3761 3758 ] final   -5.70 input  -89.99 | X-H torsion
[ 2472 2467 2466 2463 ] final -172.95 input  -89.97 | X-H torsion

> <Gold.Protein.ActiveResidues>
 VAL82   VAL86   LEU89   PHE106  VAL107  ASP110  VAL111  MET112  CYS114  THR115 
 CYS181  SER182  ILE183  PHE188  VAL189  ILE190  SER192  SER193  SER196  TRP342 
 PHE345  PHE346  HIS349  VAL350  TYR365  THR369  GLY372  TYR373 

> <Gold.Protein.RotatedAtoms>
    3.6061   -8.8266    3.7944 H   0  0  0  0  0  0  0  0  0  0  0  0  # atno 1303 bound_to 1298
    1.8293   -7.9867    7.3043 H   0  0  0  0  0  0  0  0  0  0  0  0  # atno 2461 bound_to 2456
   -5.2759   -5.4115    9.1078 H   0  0  0  0  0  0  0  0  0  0  0  0  # atno 2472 bound_to 2467
    2.4314   -9.1713    5.6558 H   0  0  0  0  0  0  0  0  0  0  0  0  # atno 2515 bound_to 2510
   -2.8789  -17.4581   13.0468 H   0  0  0  0  0  0  0  0  0  0  0  0  # atno 3721 bound_to 3712
   -5.3713  -22.6463   10.1860 H   0  0  0  0  0  0  0  0  0  0  0  0  # atno 3767 bound_to 3762
    2.9571  -20.0491    8.4110 H   0  0  0  0  0  0  0  0  0  0  0  0  # atno 3841 bound_to 3832
    4.8987   -9.0304    4.7711 LP  0  0  0  0  0  0  0  0  0  0  0  0  # atno 4297 bound_to 1298
    3.8575  -10.2644    4.5264 LP  0  0  0  0  0  0  0  0  0  0  0  0  # atno 4298 bound_to 1298
    0.3434   -8.6492    7.4474 LP  0  0  0  0  0  0  0  0  0  0  0  0  # atno 4299 bound_to 2456
    1.5652   -9.1721    8.3963 LP  0  0  0  0  0  0  0  0  0  0  0  0  # atno 4300 bound_to 2456
    2.0831   -7.5762    5.6657 LP  0  0  0  0  0  0  0  0  0  0  0  0  # atno 4301 bound_to 2510
    2.7823   -8.2513    4.3535 LP  0  0  0  0  0  0  0  0  0  0  0  0  # atno 4302 bound_to 2510
   -2.6931  -17.9748   14.5556 LP  0  0  0  0  0  0  0  0  0  0  0  0  # atno 4306 bound_to 3712
   -3.5108  -16.5959   14.2447 LP  0  0  0  0  0  0  0  0  0  0  0  0  # atno 4307 bound_to 3712
    2.3746  -21.1387    9.4355 LP  0  0  0  0  0  0  0  0  0  0  0  0  # atno 4314 bound_to 3832
    1.4389  -19.9069    8.9121 LP  0  0  0  0  0  0  0  0  0  0  0  0  # atno 4315 bound_to 3832
   -4.7700  -21.9993   11.5596 LP  0  0  0  0  0  0  0  0  0  0  0  0  # atno 4318 bound_to 3762
   -3.9863  -23.2295   10.8252 LP  0  0  0  0  0  0  0  0  0  0  0  0  # atno 4319 bound_to 3762
   -4.7574   -4.8356    7.6705 LP  0  0  0  0  0  0  0  0  0  0  0  0  # atno 4320 bound_to 2467
   -3.6837   -5.1465    8.8609 LP  0  0  0  0  0  0  0  0  0  0  0  0  # atno 4321 bound_to 2467

> <Gold.Score>
     Score     S(PLP)   S(hbond)     S(cho)   S(metal)  DE(clash)   DE(tors)     intcor
     40.73     -38.11       0.00       1.00       0.00       0.00       0.19       0.00

> <Gold.PLP.Fitness>
40.7347

> <Gold.PLP.PLP>
-38.1144

> <Gold.PLP.part.hbond>
-0.5622

> <Gold.PLP.part.metal>
0.0000

> <Gold.PLP.part.buried>
0.9736

> <Gold.PLP.part.nonpolar>
-38.4316

> <Gold.PLP.part.repulsive>
0.1036

> <Gold.PLP.ligand.clash>
0.0000

> <Gold.PLP.ligand.torsion>
0.1899

> <Gold.PLP.Chemscore.Hbond>
0.0000

> <Gold.PLP.Chemscore.CHOScore>
1.0000

> <Gold.PLP.Chemscore.Metal>
0.0000

> <Gold.Chemscore.Hbonds>
donor molecule, donor type, donor heavy atom, donor atom, acceptor molecule, acceptor atom, score
      L1  C    11    18       P1  2398  1.00

> <Gold.PLP.Chemscore.Internal.Correction>
0.0001

