#       Name:                EN300-125606_i001
#       Creating user name   fsindt
#       Creation time:       Tue Feb 28 12:02:18 2023


#       File generated by GOLD software.
#

@<TRIPOS>MOLECULE
EN300-125606_i001|amine_4|mol2|5092|dock1
    20    21     1
SMALL
USER_CHARGES


@<TRIPOS>ATOM
      1 N1           0.5700 -10.9502   7.1843 N.pl3          1 <1>                0.0000
      2 C2           0.6623 -12.2829   7.5863 C.ar           1 <1>                0.0000
      3 C3           1.3024 -13.2201   6.7839 C.ar           1 <1>                0.0000
      4 C4           1.3692 -14.5335   7.2257 C.ar           1 <1>                0.0000
      5 C5           0.8028 -14.8728   8.4406 C.ar           1 <1>                0.0000
      6 N6           0.2001 -13.9691   9.1864 N.ar           1 <1>                0.0000
      7 C7           0.1155 -12.6982   8.8096 C.ar           1 <1>                0.0000
      8 C8          -0.5689 -11.7198   9.6770 C.2            1 <1>                0.0000
      9 C9          -1.2859 -12.0093  10.7966 C.2            1 <1>                0.0000
     10 C10         -1.7569 -10.7829  11.3050 C.2            1 <1>                0.0000
     11 C11         -1.3097  -9.8153  10.4802 C.2            1 <1>                0.0000
     12 O12         -0.5875 -10.3843   9.5013 O.3            1 <1>                0.0000
     13 H13          1.7377 -12.9326   5.8383 H              1 <1>                0.0000
     14 H14          1.8595 -15.2853   6.6250 H              1 <1>                0.0000
     15 H15          0.8548 -15.8956   8.7836 H              1 <1>                0.0000
     16 H16         -1.4606 -12.9898  11.2144 H              1 <1>                0.0000
     17 H17         -2.3622 -10.6442  12.1886 H              1 <1>                0.0000
     18 H18         -1.4969  -8.7575  10.5909 H              1 <1>                0.0000
     19 H19          0.9544 -10.6710   6.3387 H              1 <1>                0.0000
     20 H20          0.1179 -10.3037   7.7486 H              1 <1>                0.0000
@<TRIPOS>BOND
    1    1    2 1     
    2    1   19 1     
    3    1   20 1     
    4    2    3 ar    
    5    2    7 ar    
    6    3    4 ar    
    7    3   13 1     
    8    4    5 ar    
    9    4   14 1     
   10    5    6 ar    
   11    5   15 1     
   12    6    7 ar    
   13    7    8 1     
   14    8    9 2     
   15    8   12 1     
   16    9   10 1     
   17    9   16 1     
   18   10   11 2     
   19   10   17 1     
   20   11   12 1     
   21   11   18 1     
@<TRIPOS>SUBSTRUCTURE
      1 ****           1
@<TRIPOS>SET
DONOR_HYDROGENS      STATIC     ATOMS    <user>   **** ""
2 19 20
ATOM$RED        STATIC     ATOMS    COLORGROUP SYSTEM
2 19 20
@<TRIPOS>COMMENT
> <Gold.Version>
2022.2.0

> <Gold.Id.Protein>
3pbl|protein|mol2

> <Gold.Protein.RotatedTorsions>
[ 1303 1298 1297 1294 ] final   23.52 input  179.99 | X-H torsion
[ 2461 2456 2455 2452 ] final -135.31 input   30.03 | X-H torsion
[ 2515 2510 2509 2506 ] final -109.08 input  -89.99 | X-H torsion
[ 3721 3712 3711 3710 ] final  115.49 input -179.91 | X-H torsion
[ 3841 3832 3831 3830 ] final   65.67 input -179.91 | X-H torsion
[ 3767 3762 3761 3758 ] final   -5.93 input  -89.99 | X-H torsion
[ 2472 2467 2466 2463 ] final  159.81 input  -89.97 | X-H torsion

> <Gold.Protein.ActiveResidues>
 VAL82   VAL86   LEU89   PHE106  VAL107  ASP110  VAL111  MET112  CYS114  THR115 
 CYS181  SER182  ILE183  PHE188  VAL189  ILE190  SER192  SER193  SER196  TRP342 
 PHE345  PHE346  HIS349  VAL350  TYR365  THR369  GLY372  TYR373 

> <Gold.Protein.RotatedAtoms>
    3.5645  -10.1291    4.2709 H   0  0  0  0  0  0  0  0  0  0  0  0  # atno 1303 bound_to 1298
    0.7640   -9.2541    8.1986 H   0  0  0  0  0  0  0  0  0  0  0  0  # atno 2461 bound_to 2456
   -5.4817   -5.2983    8.7309 H   0  0  0  0  0  0  0  0  0  0  0  0  # atno 2472 bound_to 2467
    2.7641   -9.1294    4.8457 H   0  0  0  0  0  0  0  0  0  0  0  0  # atno 2515 bound_to 2510
   -2.9752  -17.2925   13.0313 H   0  0  0  0  0  0  0  0  0  0  0  0  # atno 3721 bound_to 3712
   -5.3731  -22.6435   10.1877 H   0  0  0  0  0  0  0  0  0  0  0  0  # atno 3767 bound_to 3762
    2.5469  -20.9536    9.4749 H   0  0  0  0  0  0  0  0  0  0  0  0  # atno 3841 bound_to 3832
    3.9115   -8.5752    3.9084 LP  0  0  0  0  0  0  0  0  0  0  0  0  # atno 4297 bound_to 1298
    4.8864   -9.4167    4.9124 LP  0  0  0  0  0  0  0  0  0  0  0  0  # atno 4298 bound_to 1298
    2.1608   -8.4635    7.8963 LP  0  0  0  0  0  0  0  0  0  0  0  0  # atno 4299 bound_to 2456
    0.8128   -8.0907    7.0534 LP  0  0  0  0  0  0  0  0  0  0  0  0  # atno 4300 bound_to 2456
    2.0672   -8.3413    6.0944 LP  0  0  0  0  0  0  0  0  0  0  0  0  # atno 4301 bound_to 2510
    2.4652   -7.5281    4.7354 LP  0  0  0  0  0  0  0  0  0  0  0  0  # atno 4302 bound_to 2510
   -2.6423  -18.0900   14.3844 LP  0  0  0  0  0  0  0  0  0  0  0  0  # atno 4306 bound_to 3712
   -3.4505  -16.6719   14.4337 LP  0  0  0  0  0  0  0  0  0  0  0  0  # atno 4307 bound_to 3712
    1.4266  -19.9342    8.9441 LP  0  0  0  0  0  0  0  0  0  0  0  0  # atno 4314 bound_to 3832
    2.8608  -20.0666    8.1746 LP  0  0  0  0  0  0  0  0  0  0  0  0  # atno 4315 bound_to 3832
   -4.7668  -22.0006   11.5610 LP  0  0  0  0  0  0  0  0  0  0  0  0  # atno 4318 bound_to 3762
   -3.9877  -23.2309   10.8221 LP  0  0  0  0  0  0  0  0  0  0  0  0  # atno 4319 bound_to 3762
   -4.3161   -4.7985    7.7023 LP  0  0  0  0  0  0  0  0  0  0  0  0  # atno 4320 bound_to 2467
   -3.9194   -5.2968    9.2059 LP  0  0  0  0  0  0  0  0  0  0  0  0  # atno 4321 bound_to 2467

> <Gold.Score>
     Score     S(PLP)   S(hbond)     S(cho)   S(metal)  DE(clash)   DE(tors)     intcor
     50.52     -42.32       0.76       2.00       0.00       0.00       0.03       0.00

> <Gold.PLP.Fitness>
50.5231

> <Gold.PLP.PLP>
-42.3193

> <Gold.PLP.part.hbond>
-2.0000

> <Gold.PLP.part.metal>
0.0000

> <Gold.PLP.part.buried>
-4.5521

> <Gold.PLP.part.nonpolar>
-37.9956

> <Gold.PLP.part.repulsive>
0.0557

> <Gold.PLP.ligand.clash>
0.0000

> <Gold.PLP.ligand.torsion>
0.0347

> <Gold.PLP.Chemscore.Hbond>
0.7613

> <Gold.PLP.Chemscore.CHOScore>
1.9964

> <Gold.PLP.Chemscore.Metal>
0.0000

> <Gold.Chemscore.Hbonds>
donor molecule, donor type, donor heavy atom, donor atom, acceptor molecule, acceptor atom, score
      P1  H  2456  2461       L1    12  0.76
      L1  C     5    15       P1  1227  1.00
      L1  C    11    18       P1  2398  1.00

> <Gold.PLP.Chemscore.Internal.Correction>
0.0002

