#       Name:                EN300-125606_i001
#       Creating user name   fsindt
#       Creation time:       Tue Feb 28 12:02:21 2023


#       File generated by GOLD software.
#

@<TRIPOS>MOLECULE
EN300-125606_i001|amine_4|mol2|5092|dock8
    20    21     1
SMALL
USER_CHARGES


@<TRIPOS>ATOM
      1 N1           0.7924 -10.9568   7.4739 N.pl3          1 <1>                0.0000
      2 C2           0.6598 -12.3136   7.7699 C.ar           1 <1>                0.0000
      3 C3           1.1550 -13.2780   6.9001 C.ar           1 <1>                0.0000
      4 C4           0.9997 -14.6148   7.2371 C.ar           1 <1>                0.0000
      5 C5           0.3625 -14.9497   8.4176 C.ar           1 <1>                0.0000
      6 N6          -0.1001 -14.0199   9.2287 N.ar           1 <1>                0.0000
      7 C7           0.0296 -12.7271   8.9530 C.ar           1 <1>                0.0000
      8 C8          -0.5039 -11.7200   9.8906 C.2            1 <1>                0.0000
      9 C9           0.1800 -10.6579  10.3960 C.2            1 <1>                0.0000
     10 C10         -0.7101  -9.9675  11.2419 C.2            1 <1>                0.0000
     11 C11         -1.8809 -10.6343  11.2121 C.2            1 <1>                0.0000
     12 O12         -1.7546 -11.6890  10.3904 O.3            1 <1>                0.0000
     13 H13          1.6492 -12.9934   5.9829 H              1 <1>                0.0000
     14 H14          1.3733 -15.3880   6.5820 H              1 <1>                0.0000
     15 H15          0.2416 -15.9906   8.6791 H              1 <1>                0.0000
     16 H16          1.2070 -10.3952  10.1890 H              1 <1>                0.0000
     17 H17         -0.4949  -9.0730  11.8074 H              1 <1>                0.0000
     18 H18         -2.7740 -10.3629  11.7552 H              1 <1>                0.0000
     19 H19          1.2330 -10.6797   6.6555 H              1 <1>                0.0000
     20 H20          0.4402 -10.2905   8.0846 H              1 <1>                0.0000
@<TRIPOS>BOND
    1    1    2 1     
    2    1   19 1     
    3    1   20 1     
    4    2    3 ar    
    5    2    7 ar    
    6    3    4 ar    
    7    3   13 1     
    8    4    5 ar    
    9    4   14 1     
   10    5    6 ar    
   11    5   15 1     
   12    6    7 ar    
   13    7    8 1     
   14    8    9 2     
   15    8   12 1     
   16    9   10 1     
   17    9   16 1     
   18   10   11 2     
   19   10   17 1     
   20   11   12 1     
   21   11   18 1     
@<TRIPOS>SUBSTRUCTURE
      1 ****           1
@<TRIPOS>SET
DONOR_HYDROGENS      STATIC     ATOMS    <user>   **** ""
2 19 20
ATOM$RED        STATIC     ATOMS    COLORGROUP SYSTEM
2 19 20
@<TRIPOS>COMMENT
> <Gold.Version>
2022.2.0

> <Gold.Id.Protein>
3pbl|protein|mol2

> <Gold.Protein.RotatedTorsions>
[ 1303 1298 1297 1294 ] final -125.84 input  179.99 | X-H torsion
[ 2461 2456 2455 2452 ] final    4.75 input   30.03 | X-H torsion
[ 2515 2510 2509 2506 ] final -122.15 input  -89.99 | X-H torsion
[ 3721 3712 3711 3710 ] final   -1.49 input -179.91 | X-H torsion
[ 3841 3832 3831 3830 ] final -175.52 input -179.91 | X-H torsion
[ 3767 3762 3761 3758 ] final  141.62 input  -89.99 | X-H torsion
[ 2472 2467 2466 2463 ] final  156.18 input  -89.97 | X-H torsion

> <Gold.Protein.ActiveResidues>
 VAL82   VAL86   LEU89   PHE106  VAL107  ASP110  VAL111  MET112  CYS114  THR115 
 CYS181  SER182  ILE183  PHE188  VAL189  ILE190  SER192  SER193  SER196  TRP342 
 PHE345  PHE346  HIS349  VAL350  TYR365  THR369  GLY372  TYR373 

> <Gold.Protein.RotatedAtoms>
    4.3122   -8.4762    4.1490 H   0  0  0  0  0  0  0  0  0  0  0  0  # atno 1303 bound_to 1298
    1.1156   -7.9650    7.0336 H   0  0  0  0  0  0  0  0  0  0  0  0  # atno 2461 bound_to 2456
   -5.4943   -5.2797    8.6757 H   0  0  0  0  0  0  0  0  0  0  0  0  # atno 2472 bound_to 2467
    2.7036   -9.2149    5.0328 H   0  0  0  0  0  0  0  0  0  0  0  0  # atno 2515 bound_to 2510
   -2.4902  -17.9478   14.2628 H   0  0  0  0  0  0  0  0  0  0  0  0  # atno 3721 bound_to 3712
   -3.9069  -22.9901   11.1922 H   0  0  0  0  0  0  0  0  0  0  0  0  # atno 3767 bound_to 3762
    2.9172  -19.9996    8.3914 H   0  0  0  0  0  0  0  0  0  0  0  0  # atno 3841 bound_to 3832
    4.6898   -9.8513    4.9444 LP  0  0  0  0  0  0  0  0  0  0  0  0  # atno 4297 bound_to 1298
    3.3601   -9.7942    3.9982 LP  0  0  0  0  0  0  0  0  0  0  0  0  # atno 4298 bound_to 1298
    0.5265   -9.1406    8.0022 LP  0  0  0  0  0  0  0  0  0  0  0  0  # atno 4299 bound_to 2456
    2.0957   -8.7023    8.1121 LP  0  0  0  0  0  0  0  0  0  0  0  0  # atno 4300 bound_to 2456
    2.0377   -8.1321    6.0575 LP  0  0  0  0  0  0  0  0  0  0  0  0  # atno 4301 bound_to 2510
    2.5553   -7.6517    4.5851 LP  0  0  0  0  0  0  0  0  0  0  0  0  # atno 4302 bound_to 2510
   -3.4502  -16.6723   14.4345 LP  0  0  0  0  0  0  0  0  0  0  0  0  # atno 4306 bound_to 3712
   -3.2025  -17.3330   12.9619 LP  0  0  0  0  0  0  0  0  0  0  0  0  # atno 4307 bound_to 3712
    2.4403  -21.1495    9.4046 LP  0  0  0  0  0  0  0  0  0  0  0  0  # atno 4314 bound_to 3832
    1.4192  -19.9532    8.9657 LP  0  0  0  0  0  0  0  0  0  0  0  0  # atno 4315 bound_to 3832
   -5.0901  -22.9703   10.0668 LP  0  0  0  0  0  0  0  0  0  0  0  0  # atno 4318 bound_to 3762
   -5.1300  -21.9147   11.3121 LP  0  0  0  0  0  0  0  0  0  0  0  0  # atno 4319 bound_to 3762
   -4.2595   -4.7992    7.7213 LP  0  0  0  0  0  0  0  0  0  0  0  0  # atno 4320 bound_to 2467
   -3.9632   -5.3147    9.2422 LP  0  0  0  0  0  0  0  0  0  0  0  0  # atno 4321 bound_to 2467

> <Gold.Score>
     Score     S(PLP)   S(hbond)     S(cho)   S(metal)  DE(clash)   DE(tors)     intcor
     41.84     -42.59       0.37       0.00       0.00       0.00       0.92       0.00

> <Gold.PLP.Fitness>
41.8409

> <Gold.PLP.PLP>
-42.5865

> <Gold.PLP.part.hbond>
-1.0000

> <Gold.PLP.part.metal>
0.0000

> <Gold.PLP.part.buried>
-4.8623

> <Gold.PLP.part.nonpolar>
-37.5494

> <Gold.PLP.part.repulsive>
0.0365

> <Gold.PLP.ligand.clash>
0.0000

> <Gold.PLP.ligand.torsion>
0.9248

> <Gold.PLP.Chemscore.Hbond>
0.3680

> <Gold.PLP.Chemscore.CHOScore>
0.0000

> <Gold.PLP.Chemscore.Metal>
0.0000

> <Gold.Chemscore.Hbonds>
donor molecule, donor type, donor heavy atom, donor atom, acceptor molecule, acceptor atom, score
      L1  H     1    20       P1  2456  0.37

> <Gold.PLP.Chemscore.Internal.Correction>
0.0001

