#       Name:                EN300-125606_i001
#       Creating user name   fsindt
#       Creation time:       Tue Feb 28 12:02:21 2023


#       File generated by GOLD software.
#

@<TRIPOS>MOLECULE
EN300-125606_i001|amine_4|mol2|5092|dock9
    20    21     1
SMALL
USER_CHARGES


@<TRIPOS>ATOM
      1 N1           0.3545 -10.8006   9.0814 N.pl3          1 <1>                0.0000
      2 C2          -0.9754 -10.8457   9.5003 C.ar           1 <1>                0.0000
      3 C3          -1.8288  -9.7754   9.2587 C.ar           1 <1>                0.0000
      4 C4          -3.1429  -9.8661   9.6940 C.ar           1 <1>                0.0000
      5 C5          -3.5654 -11.0073  10.3505 C.ar           1 <1>                0.0000
      6 N6          -2.7403 -12.0111  10.5698 N.ar           1 <1>                0.0000
      7 C7          -1.4752 -11.9741  10.1672 C.ar           1 <1>                0.0000
      8 C8          -0.5864 -13.1216  10.4345 C.2            1 <1>                0.0000
      9 C9          -0.6992 -13.9945  11.4721 C.2            1 <1>                0.0000
     10 C10          0.3516 -14.9229  11.3372 C.2            1 <1>                0.0000
     11 C11          1.0470 -14.5754  10.2362 C.2            1 <1>                0.0000
     12 O12          0.4742 -13.4905   9.6902 O.3            1 <1>                0.0000
     13 H13         -1.4770  -8.8935   8.7442 H              1 <1>                0.0000
     14 H14         -3.8306  -9.0513   9.5219 H              1 <1>                0.0000
     15 H15         -4.5885 -11.0770  10.6895 H              1 <1>                0.0000
     16 H16         -1.4491 -13.9782  12.2492 H              1 <1>                0.0000
     17 H17          0.5606 -15.7557  11.9924 H              1 <1>                0.0000
     18 H18          1.9177 -15.0874   9.8539 H              1 <1>                0.0000
     19 H19          0.6906 -10.0180   8.6174 H              1 <1>                0.0000
     20 H20          0.9442 -11.5503   9.2577 H              1 <1>                0.0000
@<TRIPOS>BOND
    1    1    2 1     
    2    1   19 1     
    3    1   20 1     
    4    2    3 ar    
    5    2    7 ar    
    6    3    4 ar    
    7    3   13 1     
    8    4    5 ar    
    9    4   14 1     
   10    5    6 ar    
   11    5   15 1     
   12    6    7 ar    
   13    7    8 1     
   14    8    9 2     
   15    8   12 1     
   16    9   10 1     
   17    9   16 1     
   18   10   11 2     
   19   10   17 1     
   20   11   12 1     
   21   11   18 1     
@<TRIPOS>SUBSTRUCTURE
      1 ****           1
@<TRIPOS>SET
DONOR_HYDROGENS      STATIC     ATOMS    <user>   **** ""
2 19 20
ATOM$RED        STATIC     ATOMS    COLORGROUP SYSTEM
2 19 20
@<TRIPOS>COMMENT
> <Gold.Version>
2022.2.0

> <Gold.Id.Protein>
3pbl|protein|mol2

> <Gold.Protein.RotatedTorsions>
[ 1303 1298 1297 1294 ] final -105.65 input  179.99 | X-H torsion
[ 2461 2456 2455 2452 ] final   82.26 input   30.03 | X-H torsion
[ 2515 2510 2509 2506 ] final   96.15 input  -89.99 | X-H torsion
[ 3721 3712 3711 3710 ] final    0.11 input -179.91 | X-H torsion
[ 3841 3832 3831 3830 ] final -169.72 input -179.91 | X-H torsion
[ 3767 3762 3761 3758 ] final   41.81 input  -89.99 | X-H torsion
[ 2472 2467 2466 2463 ] final  131.43 input  -89.97 | X-H torsion

> <Gold.Protein.ActiveResidues>
 VAL82   VAL86   LEU89   PHE106  VAL107  ASP110  VAL111  MET112  CYS114  THR115 
 CYS181  SER182  ILE183  PHE188  VAL189  ILE190  SER192  SER193  SER196  TRP342 
 PHE345  PHE346  HIS349  VAL350  TYR365  THR369  GLY372  TYR373 

> <Gold.Protein.RotatedAtoms>
    4.0354   -8.5200    3.9737 H   0  0  0  0  0  0  0  0  0  0  0  0  # atno 1303 bound_to 1298
    2.1025   -8.2176    7.6304 H   0  0  0  0  0  0  0  0  0  0  0  0  # atno 2461 bound_to 2456
   -5.4812   -5.1415    8.2961 H   0  0  0  0  0  0  0  0  0  0  0  0  # atno 2472 bound_to 2467
    2.0343   -7.8128    5.9027 H   0  0  0  0  0  0  0  0  0  0  0  0  # atno 2515 bound_to 2510
   -2.4867  -17.9573   14.2409 H   0  0  0  0  0  0  0  0  0  0  0  0  # atno 3721 bound_to 3712
   -4.8226  -23.1631   10.0910 H   0  0  0  0  0  0  0  0  0  0  0  0  # atno 3767 bound_to 3762
    2.8596  -19.9369    8.3710 H   0  0  0  0  0  0  0  0  0  0  0  0  # atno 3841 bound_to 3832
    4.8447   -9.5592    4.9387 LP  0  0  0  0  0  0  0  0  0  0  0  0  # atno 4297 bound_to 1298
    3.4821  -10.0424    4.1794 LP  0  0  0  0  0  0  0  0  0  0  0  0  # atno 4298 bound_to 1298
    0.5379   -8.3036    7.1701 LP  0  0  0  0  0  0  0  0  0  0  0  0  # atno 4299 bound_to 2456
    1.0977   -9.2868    8.3476 LP  0  0  0  0  0  0  0  0  0  0  0  0  # atno 4300 bound_to 2456
    2.6887   -7.9313    4.4116 LP  0  0  0  0  0  0  0  0  0  0  0  0  # atno 4301 bound_to 2510
    2.5739   -9.2553    5.3606 LP  0  0  0  0  0  0  0  0  0  0  0  0  # atno 4302 bound_to 2510
   -3.4412  -16.6844   14.4566 LP  0  0  0  0  0  0  0  0  0  0  0  0  # atno 4306 bound_to 3712
   -3.2155  -17.3099   12.9651 LP  0  0  0  0  0  0  0  0  0  0  0  0  # atno 4307 bound_to 3712
    2.5253  -21.1571    9.3587 LP  0  0  0  0  0  0  0  0  0  0  0  0  # atno 4314 bound_to 3832
    1.4007  -20.0181    9.0352 LP  0  0  0  0  0  0  0  0  0  0  0  0  # atno 4315 bound_to 3832
   -5.3400  -21.9544   11.0596 LP  0  0  0  0  0  0  0  0  0  0  0  0  # atno 4318 bound_to 3762
   -3.9647  -22.7577   11.4201 LP  0  0  0  0  0  0  0  0  0  0  0  0  # atno 4319 bound_to 3762
   -3.9181   -4.8382    7.9340 LP  0  0  0  0  0  0  0  0  0  0  0  0  # atno 4320 bound_to 2467
   -4.3177   -5.4138    9.4090 LP  0  0  0  0  0  0  0  0  0  0  0  0  # atno 4321 bound_to 2467

> <Gold.Score>
     Score     S(PLP)   S(hbond)     S(cho)   S(metal)  DE(clash)   DE(tors)     intcor
     43.81     -38.54       1.00       0.98       0.00       0.00       0.34       0.00

> <Gold.PLP.Fitness>
43.8066

> <Gold.PLP.PLP>
-38.5364

> <Gold.PLP.part.hbond>
-1.0000

> <Gold.PLP.part.metal>
0.0000

> <Gold.PLP.part.buried>
-2.7324

> <Gold.PLP.part.nonpolar>
-36.2642

> <Gold.PLP.part.repulsive>
0.0723

> <Gold.PLP.ligand.clash>
0.0000

> <Gold.PLP.ligand.torsion>
0.3425

> <Gold.PLP.Chemscore.Hbond>
1.0000

> <Gold.PLP.Chemscore.CHOScore>
0.9850

> <Gold.PLP.Chemscore.Metal>
0.0000

> <Gold.Chemscore.Hbonds>
donor molecule, donor type, donor heavy atom, donor atom, acceptor molecule, acceptor atom, score
      L1  H     1    19       P1  2456  1.00
      L1  C    11    18       P1  1227  0.98

> <Gold.PLP.Chemscore.Internal.Correction>
0.0001

