#       Name:                EN300-125606_i001
#       Creating user name   fsindt
#       Creation time:       Tue Feb 28 12:02:23 2023


#       File generated by GOLD software.
#

@<TRIPOS>MOLECULE
EN300-125606_i001|amine_4|mol2|5092|dock16
    20    21     1
SMALL
USER_CHARGES


@<TRIPOS>ATOM
      1 N1          -0.1932 -13.3293  10.5308 N.pl3          1 <1>                0.0000
      2 C2          -0.8928 -12.1374  10.3411 C.ar           1 <1>                0.0000
      3 C3          -1.7343 -11.6467  11.3326 C.ar           1 <1>                0.0000
      4 C4          -2.4091 -10.4574  11.0984 C.ar           1 <1>                0.0000
      5 C5          -2.2289  -9.7977   9.8966 C.ar           1 <1>                0.0000
      6 N6          -1.4264 -10.2799   8.9693 N.ar           1 <1>                0.0000
      7 C7          -0.7543 -11.4113   9.1488 C.ar           1 <1>                0.0000
      8 C8           0.1336 -11.9142   8.0827 C.2            1 <1>                0.0000
      9 C9           0.1121 -13.1658   7.5496 C.2            1 <1>                0.0000
     10 C10          1.1235 -13.2070   6.5700 C.2            1 <1>                0.0000
     11 C11          1.7069 -11.9922   6.5530 C.2            1 <1>                0.0000
     12 O12          1.1026 -11.2120   7.4638 O.3            1 <1>                0.0000
     13 H13         -1.8602 -12.1791  12.2638 H              1 <1>                0.0000
     14 H14         -3.0704 -10.0502  11.8489 H              1 <1>                0.0000
     15 H15         -2.7549  -8.8721   9.7149 H              1 <1>                0.0000
     16 H16         -0.5519 -13.9720   7.8247 H              1 <1>                0.0000
     17 H17          1.3827 -14.0524   5.9498 H              1 <1>                0.0000
     18 H18          2.5219 -11.6941   5.9103 H              1 <1>                0.0000
     19 H19         -0.2919 -13.8229  11.3599 H              1 <1>                0.0000
     20 H20          0.3888 -13.6666   9.8320 H              1 <1>                0.0000
@<TRIPOS>BOND
    1    1    2 1     
    2    1   19 1     
    3    1   20 1     
    4    2    3 ar    
    5    2    7 ar    
    6    3    4 ar    
    7    3   13 1     
    8    4    5 ar    
    9    4   14 1     
   10    5    6 ar    
   11    5   15 1     
   12    6    7 ar    
   13    7    8 1     
   14    8    9 2     
   15    8   12 1     
   16    9   10 1     
   17    9   16 1     
   18   10   11 2     
   19   10   17 1     
   20   11   12 1     
   21   11   18 1     
@<TRIPOS>SUBSTRUCTURE
      1 ****           1
@<TRIPOS>SET
DONOR_HYDROGENS      STATIC     ATOMS    <user>   **** ""
2 19 20
ATOM$RED        STATIC     ATOMS    COLORGROUP SYSTEM
2 19 20
@<TRIPOS>COMMENT
> <Gold.Version>
2022.2.0

> <Gold.Id.Protein>
3pbl|protein|mol2

> <Gold.Protein.RotatedTorsions>
[ 1303 1298 1297 1294 ] final  -82.41 input  179.99 | X-H torsion
[ 2461 2456 2455 2452 ] final -151.75 input   30.03 | X-H torsion
[ 2515 2510 2509 2506 ] final -141.36 input  -89.99 | X-H torsion
[ 3721 3712 3711 3710 ] final    4.90 input -179.91 | X-H torsion
[ 3841 3832 3831 3830 ] final   20.07 input -179.91 | X-H torsion
[ 3767 3762 3761 3758 ] final  -28.87 input  -89.99 | X-H torsion
[ 2472 2467 2466 2463 ] final -165.87 input  -89.97 | X-H torsion

> <Gold.Protein.ActiveResidues>
 VAL82   VAL86   LEU89   PHE106  VAL107  ASP110  VAL111  MET112  CYS114  THR115 
 CYS181  SER182  ILE183  PHE188  VAL189  ILE190  SER192  SER193  SER196  TRP342 
 PHE345  PHE346  HIS349  VAL350  TYR365  THR369  GLY372  TYR373 

> <Gold.Protein.RotatedAtoms>
    3.7320   -8.6993    3.8324 H   0  0  0  0  0  0  0  0  0  0  0  0  # atno 1303 bound_to 1298
    1.0041   -9.2884    8.3167 H   0  0  0  0  0  0  0  0  0  0  0  0  # atno 2461 bound_to 2456
   -5.1941   -5.4315    9.1883 H   0  0  0  0  0  0  0  0  0  0  0  0  # atno 2472 bound_to 2467
    2.5902   -9.2570    5.3232 H   0  0  0  0  0  0  0  0  0  0  0  0  # atno 2515 bound_to 2510
   -2.4782  -17.9826   14.1736 H   0  0  0  0  0  0  0  0  0  0  0  0  # atno 3721 bound_to 3712
   -5.4959  -22.3650   10.4070 H   0  0  0  0  0  0  0  0  0  0  0  0  # atno 3767 bound_to 3762
    1.9438  -20.6977    9.6192 H   0  0  0  0  0  0  0  0  0  0  0  0  # atno 3841 bound_to 3832
    4.9121   -9.1974    4.8451 LP  0  0  0  0  0  0  0  0  0  0  0  0  # atno 4297 bound_to 1298
    3.7183  -10.2249    4.4143 LP  0  0  0  0  0  0  0  0  0  0  0  0  # atno 4298 bound_to 1298
    2.1313   -8.2791    7.7018 LP  0  0  0  0  0  0  0  0  0  0  0  0  # atno 4299 bound_to 2456
    0.6022   -8.2409    7.1299 LP  0  0  0  0  0  0  0  0  0  0  0  0  # atno 4300 bound_to 2456
    2.0315   -7.8462    5.9260 LP  0  0  0  0  0  0  0  0  0  0  0  0  # atno 4301 bound_to 2510
    2.6750   -7.8955    4.4260 LP  0  0  0  0  0  0  0  0  0  0  0  0  # atno 4302 bound_to 2510
   -3.4129  -16.7240   14.5201 LP  0  0  0  0  0  0  0  0  0  0  0  0  # atno 4306 bound_to 3712
   -3.2537  -17.2410   12.9793 LP  0  0  0  0  0  0  0  0  0  0  0  0  # atno 4307 bound_to 3712
    1.8557  -19.6401    8.4151 LP  0  0  0  0  0  0  0  0  0  0  0  0  # atno 4314 bound_to 3832
    3.1283  -20.6562    8.5369 LP  0  0  0  0  0  0  0  0  0  0  0  0  # atno 4315 bound_to 3832
   -4.4503  -22.1822   11.6480 LP  0  0  0  0  0  0  0  0  0  0  0  0  # atno 4318 bound_to 3762
   -4.1814  -23.3278   10.5158 LP  0  0  0  0  0  0  0  0  0  0  0  0  # atno 4319 bound_to 3762
   -4.8694   -4.8567    7.6948 LP  0  0  0  0  0  0  0  0  0  0  0  0  # atno 4320 bound_to 2467
   -3.6535   -5.1054    8.7562 LP  0  0  0  0  0  0  0  0  0  0  0  0  # atno 4321 bound_to 2467

> <Gold.Score>
     Score     S(PLP)   S(hbond)     S(cho)   S(metal)  DE(clash)   DE(tors)     intcor
     47.44     -41.73       0.65       1.87       0.00       0.00       0.92       0.00

> <Gold.PLP.Fitness>
47.4398

> <Gold.PLP.PLP>
-41.7347

> <Gold.PLP.part.hbond>
-1.0775

> <Gold.PLP.part.metal>
0.0000

> <Gold.PLP.part.buried>
-4.3182

> <Gold.PLP.part.nonpolar>
-37.1103

> <Gold.PLP.part.repulsive>
0.0742

> <Gold.PLP.ligand.clash>
0.0000

> <Gold.PLP.ligand.torsion>
0.9228

> <Gold.PLP.Chemscore.Hbond>
0.6503

> <Gold.PLP.Chemscore.CHOScore>
1.8666

> <Gold.PLP.Chemscore.Metal>
0.0000

> <Gold.Chemscore.Hbonds>
donor molecule, donor type, donor heavy atom, donor atom, acceptor molecule, acceptor atom, score
      P1  H  2456  2461       L1    12  0.65
      L1  C     5    15       P1  2398  1.00
      L1  C    11    18       P1  1235  0.87

> <Gold.PLP.Chemscore.Internal.Correction>
0.0001

