#       Name:                EN300-125606_i001
#       Creating user name   fsindt
#       Creation time:       Tue Feb 28 12:02:19 2023


#       File generated by GOLD software.
#

@<TRIPOS>MOLECULE
EN300-125606_i001|amine_4|mol2|5092|dock4
    20    21     1
SMALL
USER_CHARGES


@<TRIPOS>ATOM
      1 N1           0.6083 -11.0040   7.5688 N.pl3          1 <1>                0.0000
      2 C2           0.6345 -12.2032   8.2812 C.ar           1 <1>                0.0000
      3 C3           1.4818 -13.2355   7.8959 C.ar           1 <1>                0.0000
      4 C4           1.4728 -14.4093   8.6352 C.ar           1 <1>                0.0000
      5 C5           0.6295 -14.5209   9.7253 C.ar           1 <1>                0.0000
      6 N6          -0.1664 -13.5303  10.0741 N.ar           1 <1>                0.0000
      7 C7          -0.1897 -12.3851   9.4018 C.ar           1 <1>                0.0000
      8 C8          -1.0973 -11.3023   9.8282 C.2            1 <1>                0.0000
      9 C9          -1.8770 -11.3066  10.9433 C.2            1 <1>                0.0000
     10 C10         -2.5736 -10.0823  10.9558 C.2            1 <1>                0.0000
     11 C11         -2.1896  -9.3979   9.8600 C.2            1 <1>                0.0000
     12 O12         -1.2935 -10.1353   9.1844 O.3            1 <1>                0.0000
     13 H13          2.1320 -13.1264   7.0405 H              1 <1>                0.0000
     14 H14          2.1193 -15.2299   8.3611 H              1 <1>                0.0000
     15 H15          0.6228 -15.4352  10.3002 H              1 <1>                0.0000
     16 H16         -1.9484 -12.0962  11.6766 H              1 <1>                0.0000
     17 H17         -3.2817  -9.7540  11.7023 H              1 <1>                0.0000
     18 H18         -2.5408  -8.4172   9.5751 H              1 <1>                0.0000
     19 H19          1.1844 -10.8854   6.7976 H              1 <1>                0.0000
     20 H20          0.0110 -10.2904   7.8423 H              1 <1>                0.0000
@<TRIPOS>BOND
    1    1    2 1     
    2    1   19 1     
    3    1   20 1     
    4    2    3 ar    
    5    2    7 ar    
    6    3    4 ar    
    7    3   13 1     
    8    4    5 ar    
    9    4   14 1     
   10    5    6 ar    
   11    5   15 1     
   12    6    7 ar    
   13    7    8 1     
   14    8    9 2     
   15    8   12 1     
   16    9   10 1     
   17    9   16 1     
   18   10   11 2     
   19   10   17 1     
   20   11   12 1     
   21   11   18 1     
@<TRIPOS>SUBSTRUCTURE
      1 ****           1
@<TRIPOS>SET
DONOR_HYDROGENS      STATIC     ATOMS    <user>   **** ""
2 19 20
ATOM$RED        STATIC     ATOMS    COLORGROUP SYSTEM
2 19 20
@<TRIPOS>COMMENT
> <Gold.Version>
2022.2.0

> <Gold.Id.Protein>
3pbl|protein|mol2

> <Gold.Protein.RotatedTorsions>
[ 1303 1298 1297 1294 ] final  -53.61 input  179.99 | X-H torsion
[ 2461 2456 2455 2452 ] final   10.32 input   30.03 | X-H torsion
[ 2515 2510 2509 2506 ] final  -25.32 input  -89.99 | X-H torsion
[ 3721 3712 3711 3710 ] final -113.83 input -179.91 | X-H torsion
[ 3841 3832 3831 3830 ] final -142.18 input -179.91 | X-H torsion
[ 3767 3762 3761 3758 ] final  -40.80 input  -89.99 | X-H torsion
[ 2472 2467 2466 2463 ] final  -28.13 input  -89.97 | X-H torsion

> <Gold.Protein.ActiveResidues>
 VAL82   VAL86   LEU89   PHE106  VAL107  ASP110  VAL111  MET112  CYS114  THR115 
 CYS181  SER182  ILE183  PHE188  VAL189  ILE190  SER192  SER193  SER196  TRP342 
 PHE345  PHE346  HIS349  VAL350  TYR365  THR369  GLY372  TYR373 

> <Gold.Protein.RotatedAtoms>
    3.4481   -9.0684    3.7784 H   0  0  0  0  0  0  0  0  0  0  0  0  # atno 1303 bound_to 1298
    1.2041   -7.9435    7.0429 H   0  0  0  0  0  0  0  0  0  0  0  0  # atno 2461 bound_to 2456
   -3.6399   -5.0063    8.4831 H   0  0  0  0  0  0  0  0  0  0  0  0  # atno 2472 bound_to 2467
    2.6967   -7.9530    4.4042 H   0  0  0  0  0  0  0  0  0  0  0  0  # atno 2515 bound_to 2510
   -3.1833  -16.7049   14.4771 H   0  0  0  0  0  0  0  0  0  0  0  0  # atno 3721 bound_to 3712
   -5.5110  -22.2339   10.5519 H   0  0  0  0  0  0  0  0  0  0  0  0  # atno 3767 bound_to 3762
    2.5260  -19.6953    8.3612 H   0  0  0  0  0  0  0  0  0  0  0  0  # atno 3841 bound_to 3832
    4.8181   -8.7949    4.6237 LP  0  0  0  0  0  0  0  0  0  0  0  0  # atno 4297 bound_to 1298
    4.0962  -10.2582    4.6898 LP  0  0  0  0  0  0  0  0  0  0  0  0  # atno 4298 bound_to 1298
    0.4750   -9.0968    7.9405 LP  0  0  0  0  0  0  0  0  0  0  0  0  # atno 4299 bound_to 2456
    2.0587   -8.7677    8.1645 LP  0  0  0  0  0  0  0  0  0  0  0  0  # atno 4300 bound_to 2456
    2.5641   -9.2532    5.3828 LP  0  0  0  0  0  0  0  0  0  0  0  0  # atno 4301 bound_to 2510
    2.0358   -7.7931    5.8886 LP  0  0  0  0  0  0  0  0  0  0  0  0  # atno 4302 bound_to 2510
   -3.2403  -17.2653   12.9735 LP  0  0  0  0  0  0  0  0  0  0  0  0  # atno 4306 bound_to 3712
   -2.6122  -18.1749   14.1755 LP  0  0  0  0  0  0  0  0  0  0  0  0  # atno 4307 bound_to 3712
    2.8777  -21.0876    9.0783 LP  0  0  0  0  0  0  0  0  0  0  0  0  # atno 4314 bound_to 3832
    1.4337  -20.3666    9.3269 LP  0  0  0  0  0  0  0  0  0  0  0  0  # atno 4315 bound_to 3832
   -4.2990  -22.3065   11.6439 LP  0  0  0  0  0  0  0  0  0  0  0  0  # atno 4318 bound_to 3762
   -4.3176  -23.3345   10.3752 LP  0  0  0  0  0  0  0  0  0  0  0  0  # atno 4319 bound_to 3762
   -4.9506   -5.4603    9.3447 LP  0  0  0  0  0  0  0  0  0  0  0  0  # atno 4320 bound_to 2467
   -5.1262   -4.9269    7.8113 LP  0  0  0  0  0  0  0  0  0  0  0  0  # atno 4321 bound_to 2467

> <Gold.Score>
     Score     S(PLP)   S(hbond)     S(cho)   S(metal)  DE(clash)   DE(tors)     intcor
     41.20     -37.88       0.11       1.00       0.00       0.00       0.01       0.00

> <Gold.PLP.Fitness>
41.2039

> <Gold.PLP.PLP>
-37.8831

> <Gold.PLP.part.hbond>
-1.4362

> <Gold.PLP.part.metal>
0.0000

> <Gold.PLP.part.buried>
-2.9027

> <Gold.PLP.part.nonpolar>
-34.9561

> <Gold.PLP.part.repulsive>
0.0548

> <Gold.PLP.ligand.clash>
0.0000

> <Gold.PLP.ligand.torsion>
0.0113

> <Gold.PLP.Chemscore.Hbond>
0.1144

> <Gold.PLP.Chemscore.CHOScore>
1.0000

> <Gold.PLP.Chemscore.Metal>
0.0000

> <Gold.Chemscore.Hbonds>
donor molecule, donor type, donor heavy atom, donor atom, acceptor molecule, acceptor atom, score
      L1  H     1    20       P1  2456  0.11
      L1  C    11    18       P1  2398  1.00

> <Gold.PLP.Chemscore.Internal.Correction>
0.0001

