#       Name:                EN300-125606_i001
#       Creating user name   fsindt
#       Creation time:       Tue Feb 28 12:02:23 2023


#       File generated by GOLD software.
#

@<TRIPOS>MOLECULE
EN300-125606_i001|amine_4|mol2|5092|dock14
    20    21     1
SMALL
USER_CHARGES


@<TRIPOS>ATOM
      1 N1           0.6155 -12.2309   8.5573 N.pl3          1 <1>                0.0000
      2 C2           0.3383 -13.0629   9.6422 C.ar           1 <1>                0.0000
      3 C3           1.1302 -14.1760   9.8993 C.ar           1 <1>                0.0000
      4 C4           0.8156 -14.9737  10.9898 C.ar           1 <1>                0.0000
      5 C5          -0.2668 -14.6443  11.7847 C.ar           1 <1>                0.0000
      6 N6          -1.0051 -13.5845  11.5237 N.ar           1 <1>                0.0000
      7 C7          -0.7407 -12.7869  10.4952 C.ar           1 <1>                0.0000
      8 C8          -1.5947 -11.6105  10.2405 C.2            1 <1>                0.0000
      9 C9          -2.9306 -11.5257  10.4840 C.2            1 <1>                0.0000
     10 C10         -3.3328 -10.2332  10.0942 C.2            1 <1>                0.0000
     11 C11         -2.2351  -9.5990   9.6367 C.2            1 <1>                0.0000
     12 O12         -1.1860 -10.4318   9.7320 O.3            1 <1>                0.0000
     13 H13          1.9709 -14.4144   9.2646 H              1 <1>                0.0000
     14 H14          1.4114 -15.8457  11.2159 H              1 <1>                0.0000
     15 H15         -0.5113 -15.2661  12.6332 H              1 <1>                0.0000
     16 H16         -3.5609 -12.3000  10.8961 H              1 <1>                0.0000
     17 H17         -4.3320  -9.8272  10.1510 H              1 <1>                0.0000
     18 H18         -2.2036  -8.5872   9.2603 H              1 <1>                0.0000
     19 H19          1.3660 -12.4270   7.9750 H              1 <1>                0.0000
     20 H20          0.0552 -11.4585   8.3829 H              1 <1>                0.0000
@<TRIPOS>BOND
    1    1    2 1     
    2    1   19 1     
    3    1   20 1     
    4    2    3 ar    
    5    2    7 ar    
    6    3    4 ar    
    7    3   13 1     
    8    4    5 ar    
    9    4   14 1     
   10    5    6 ar    
   11    5   15 1     
   12    6    7 ar    
   13    7    8 1     
   14    8    9 2     
   15    8   12 1     
   16    9   10 1     
   17    9   16 1     
   18   10   11 2     
   19   10   17 1     
   20   11   12 1     
   21   11   18 1     
@<TRIPOS>SUBSTRUCTURE
      1 ****           1
@<TRIPOS>SET
DONOR_HYDROGENS      STATIC     ATOMS    <user>   **** ""
2 19 20
ATOM$RED        STATIC     ATOMS    COLORGROUP SYSTEM
2 19 20
@<TRIPOS>COMMENT
> <Gold.Version>
2022.2.0

> <Gold.Id.Protein>
3pbl|protein|mol2

> <Gold.Protein.RotatedTorsions>
[ 1303 1298 1297 1294 ] final   17.43 input  179.99 | X-H torsion
[ 2461 2456 2455 2452 ] final  150.48 input   30.03 | X-H torsion
[ 2515 2510 2509 2506 ] final -156.31 input  -89.99 | X-H torsion
[ 3721 3712 3711 3710 ] final  -33.64 input -179.91 | X-H torsion
[ 3841 3832 3831 3830 ] final   -5.58 input -179.91 | X-H torsion
[ 3767 3762 3761 3758 ] final   21.36 input  -89.99 | X-H torsion
[ 2472 2467 2466 2463 ] final -155.45 input  -89.97 | X-H torsion

> <Gold.Protein.ActiveResidues>
 VAL82   VAL86   LEU89   PHE106  VAL107  ASP110  VAL111  MET112  CYS114  THR115 
 CYS181  SER182  ILE183  PHE188  VAL189  ILE190  SER192  SER193  SER196  TRP342 
 PHE345  PHE346  HIS349  VAL350  TYR365  THR369  GLY372  TYR373 

> <Gold.Protein.RotatedAtoms>
    3.5080  -10.0733    4.2099 H   0  0  0  0  0  0  0  0  0  0  0  0  # atno 1303 bound_to 1298
    1.8640   -8.9871    8.3158 H   0  0  0  0  0  0  0  0  0  0  0  0  # atno 2461 bound_to 2456
   -5.0569   -5.4525    9.2886 H   0  0  0  0  0  0  0  0  0  0  0  0  # atno 2472 bound_to 2467
    2.4891   -9.2184    5.5431 H   0  0  0  0  0  0  0  0  0  0  0  0  # atno 2515 bound_to 2510
   -2.6236  -17.6592   14.6220 H   0  0  0  0  0  0  0  0  0  0  0  0  # atno 3721 bound_to 3712
   -5.0930  -22.9671   10.0666 H   0  0  0  0  0  0  0  0  0  0  0  0  # atno 3767 bound_to 3762
    1.6915  -20.4222    9.5287 H   0  0  0  0  0  0  0  0  0  0  0  0  # atno 3841 bound_to 3832
    3.9936   -8.5361    3.9502 LP  0  0  0  0  0  0  0  0  0  0  0  0  # atno 4297 bound_to 1298
    4.8608   -9.5117    4.9315 LP  0  0  0  0  0  0  0  0  0  0  0  0  # atno 4298 bound_to 1298
    1.5218   -7.9186    7.1289 LP  0  0  0  0  0  0  0  0  0  0  0  0  # atno 4299 bound_to 2456
    0.3522   -8.9026    7.7036 LP  0  0  0  0  0  0  0  0  0  0  0  0  # atno 4300 bound_to 2456
    2.0577   -7.6599    5.7687 LP  0  0  0  0  0  0  0  0  0  0  0  0  # atno 4301 bound_to 2510
    2.7499   -8.1204    4.3632 LP  0  0  0  0  0  0  0  0  0  0  0  0  # atno 4302 bound_to 2510
   -3.5619  -16.5556   13.9295 LP  0  0  0  0  0  0  0  0  0  0  0  0  # atno 4306 bound_to 3712
   -2.9368  -17.7828   13.0522 LP  0  0  0  0  0  0  0  0  0  0  0  0  # atno 4307 bound_to 3712
    2.2289  -19.6740    8.2144 LP  0  0  0  0  0  0  0  0  0  0  0  0  # atno 4314 bound_to 3832
    3.0465  -20.9405    8.8421 LP  0  0  0  0  0  0  0  0  0  0  0  0  # atno 4315 bound_to 3832
   -5.1271  -21.9148   11.3149 LP  0  0  0  0  0  0  0  0  0  0  0  0  # atno 4318 bound_to 3762
   -3.9074  -22.9933   11.1893 LP  0  0  0  0  0  0  0  0  0  0  0  0  # atno 4319 bound_to 3762
   -5.0254   -4.8952    7.7540 LP  0  0  0  0  0  0  0  0  0  0  0  0  # atno 4320 bound_to 2467
   -3.6348   -5.0459    8.5967 LP  0  0  0  0  0  0  0  0  0  0  0  0  # atno 4321 bound_to 2467

> <Gold.Score>
     Score     S(PLP)   S(hbond)     S(cho)   S(metal)  DE(clash)   DE(tors)     intcor
     41.25     -39.73       0.00       0.82       0.00       0.00       0.46       0.00

> <Gold.PLP.Fitness>
41.2538

> <Gold.PLP.PLP>
-39.7288

> <Gold.PLP.part.hbond>
0.0000

> <Gold.PLP.part.metal>
0.0000

> <Gold.PLP.part.buried>
-3.6573

> <Gold.PLP.part.nonpolar>
-36.8384

> <Gold.PLP.part.repulsive>
0.1059

> <Gold.PLP.ligand.clash>
0.0000

> <Gold.PLP.ligand.torsion>
0.4604

> <Gold.PLP.Chemscore.Hbond>
0.0000

> <Gold.PLP.Chemscore.CHOScore>
0.8152

> <Gold.PLP.Chemscore.Metal>
0.0000

> <Gold.Chemscore.Hbonds>
donor molecule, donor type, donor heavy atom, donor atom, acceptor molecule, acceptor atom, score
      L1  C    11    18       P1  2398  0.82

> <Gold.PLP.Chemscore.Internal.Correction>
0.0001

