#       Name:                EN300-366294_i001
#       Creating user name   fsindt
#       Creation time:       Mon Feb 27 23:38:54 2023


#       File generated by GOLD software.
#

@<TRIPOS>MOLECULE
EN300-366294_i001|amine_7|mol2|2142|dock12
    30    31     1
SMALL
USER_CHARGES


@<TRIPOS>ATOM
      1 Cl1          0.2692 -12.1598   8.1607 Cl             1 <1>                0.0000
      2 C2          -0.0527 -12.9659   9.6641 C.2            1 <1>                0.0000
      3 C3           0.6038 -14.1023  10.1456 C.2            1 <1>                0.0000
      4 C4           0.0420 -14.4089  11.3677 C.2            1 <1>                0.0000
      5 N5          -0.9379 -13.4736  11.6211 N.pl3          1 <1>                0.0000
      6 C6          -0.9823 -12.6011  10.5832 C.2            1 <1>                0.0000
      7 Cl7         -2.0586 -11.2458  10.4483 Cl             1 <1>                0.0000
      8 C8           0.4184 -15.5264  12.2379 C.2            1 <1>                0.0000
      9 O9          -0.1729 -15.7071  13.2863 O.2            1 <1>                0.0000
     10 N10          1.4191 -16.3539  11.8773 N.am           1 <1>                0.0000
     11 C11          1.7954 -17.4710  12.7472 C.3            1 <1>                0.0000
     12 C12          0.7782 -18.6033  12.5920 C.3            1 <1>                0.0000
     13 C13          1.3974 -19.9473  13.0322 C.3            1 <1>                0.0000
     14 C14          0.8306 -20.9912  12.0480 C.3            1 <1>                0.0000
     15 C15         -0.0834 -20.1902  11.0960 C.3            1 <1>                0.0000
     16 N16          0.4364 -18.7999  11.1597 N.4            1 <1>                1.0000
     17 H17          1.4009 -14.6395   9.6531 H              1 <1>                0.0000
     18 H18          2.7856 -17.8313  12.4682 H              1 <1>                0.0000
     19 H19          1.8098 -17.1351  13.7841 H              1 <1>                0.0000
     20 H20         -0.1189 -18.3898  13.1729 H              1 <1>                0.0000
     21 H21          2.4840 -19.9064  12.9563 H              1 <1>                0.0000
     22 H22          1.0971 -20.1864  14.0522 H              1 <1>                0.0000
     23 H23          1.6389 -21.4628  11.4891 H              1 <1>                0.0000
     24 H24          0.2519 -21.7427  12.5850 H              1 <1>                0.0000
     25 H25         -0.0076 -20.5782  10.0802 H              1 <1>                0.0000
     26 H26         -1.1167 -20.2259  11.4415 H              1 <1>                0.0000
     27 H27         -1.5000 -13.4426  12.4110 H              1 <1>                0.0000
     28 H28          1.8904 -16.2098  11.0417 H              1 <1>                0.0000
     29 H29         -0.2746 -18.1439  10.8734 H              1 <1>                0.0000
     30 H30          1.2595 -18.7043  10.5840 H              1 <1>                0.0000
@<TRIPOS>BOND
    1    1    2 1     
    2    2    3 1     
    3    2    6 2     
    4    3    4 2     
    5    3   17 1     
    6    4    5 1     
    7    4    8 1     
    8    5    6 1     
    9    5   27 1     
   10    6    7 1     
   11    8    9 2     
   12    8   10 am    
   13   10   11 1     
   14   10   28 1     
   15   11   12 1     
   16   11   18 1     
   17   11   19 1     
   18   12   13 1     
   19   12   16 1     
   20   12   20 1     
   21   13   14 1     
   22   13   21 1     
   23   13   22 1     
   24   14   15 1     
   25   14   23 1     
   26   14   24 1     
   27   15   16 1     
   28   15   25 1     
   29   15   26 1     
   30   16   29 1     
   31   16   30 1     
@<TRIPOS>SUBSTRUCTURE
      1 ****           1
@<TRIPOS>SET
DONOR_HYDROGENS      STATIC     ATOMS    <user>   **** ""
4 27 28 29 30
ATOM$RED        STATIC     ATOMS    COLORGROUP SYSTEM
4 27 28 29 30
@<TRIPOS>COMMENT
> <Gold.Version>
2022.2.0

> <Gold.Id.Protein>
3pbl|protein|mol2

> <Gold.Protein.RotatedTorsions>
[ 1303 1298 1297 1294 ] final  -54.42 input  179.99 | X-H torsion
[ 2461 2456 2455 2452 ] final   19.94 input   30.03 | X-H torsion
[ 2515 2510 2509 2506 ] final  160.11 input  -89.99 | X-H torsion
[ 3721 3712 3711 3710 ] final  -90.11 input -179.91 | X-H torsion
[ 3841 3832 3831 3830 ] final   12.58 input -179.91 | X-H torsion
[ 3767 3762 3761 3758 ] final  -87.10 input  -89.99 | X-H torsion
[ 2472 2467 2466 2463 ] final -158.85 input  -89.97 | X-H torsion

> <Gold.Protein.ActiveResidues>
 VAL82   VAL86   LEU89   PHE106  VAL107  ASP110  VAL111  MET112  CYS114  THR115 
 CYS181  SER182  ILE183  PHE188  VAL189  ILE190  SER192  SER193  SER196  TRP342 
 PHE345  PHE346  HIS349  VAL350  TYR365  THR369  GLY372  TYR373 

> <Gold.Protein.RotatedAtoms>
    3.4540   -9.0565    3.7779 H   0  0  0  0  0  0  0  0  0  0  0  0  # atno 1303 bound_to 1298
    1.3576   -7.9210    7.0740 H   0  0  0  0  0  0  0  0  0  0  0  0  # atno 2461 bound_to 2456
   -5.1037   -5.4468    9.2584 H   0  0  0  0  0  0  0  0  0  0  0  0  # atno 2472 bound_to 2467
    2.1980   -8.7912    6.0147 H   0  0  0  0  0  0  0  0  0  0  0  0  # atno 2515 bound_to 2510
   -3.0257  -16.9478   14.6843 H   0  0  0  0  0  0  0  0  0  0  0  0  # atno 3721 bound_to 3712
   -5.2553  -21.9255   11.1757 H   0  0  0  0  0  0  0  0  0  0  0  0  # atno 3767 bound_to 3762
    1.8592  -20.6237    9.6054 H   0  0  0  0  0  0  0  0  0  0  0  0  # atno 3841 bound_to 3832
    4.8233   -8.8046    4.6310 LP  0  0  0  0  0  0  0  0  0  0  0  0  # atno 4297 bound_to 1298
    4.0851  -10.2603    4.6829 LP  0  0  0  0  0  0  0  0  0  0  0  0  # atno 4298 bound_to 1298
    0.4034   -9.0103    7.8291 LP  0  0  0  0  0  0  0  0  0  0  0  0  # atno 4299 bound_to 2456
    1.9769   -8.8766    8.2448 LP  0  0  0  0  0  0  0  0  0  0  0  0  # atno 4300 bound_to 2456
    2.2648   -7.4083    5.1492 LP  0  0  0  0  0  0  0  0  0  0  0  0  # atno 4301 bound_to 2510
    2.8340   -8.7994    4.5110 LP  0  0  0  0  0  0  0  0  0  0  0  0  # atno 4302 bound_to 2510
   -3.4105  -16.9446   13.1256 LP  0  0  0  0  0  0  0  0  0  0  0  0  # atno 4306 bound_to 3712
   -2.6240  -18.2151   13.7841 LP  0  0  0  0  0  0  0  0  0  0  0  0  # atno 4307 bound_to 3712
    1.9597  -19.6343    8.3456 LP  0  0  0  0  0  0  0  0  0  0  0  0  # atno 4314 bound_to 3832
    3.1220  -20.7474    8.6224 LP  0  0  0  0  0  0  0  0  0  0  0  0  # atno 4315 bound_to 3832
   -3.9275  -22.8641   11.3269 LP  0  0  0  0  0  0  0  0  0  0  0  0  # atno 4318 bound_to 3762
   -4.9447  -23.0851   10.0686 LP  0  0  0  0  0  0  0  0  0  0  0  0  # atno 4319 bound_to 3762
   -4.9758   -4.8817    7.7317 LP  0  0  0  0  0  0  0  0  0  0  0  0  # atno 4320 bound_to 2467
   -3.6375   -5.0651    8.6492 LP  0  0  0  0  0  0  0  0  0  0  0  0  # atno 4321 bound_to 2467

> <Gold.Score>
     Score     S(PLP)   S(hbond)     S(cho)   S(metal)  DE(clash)   DE(tors)     intcor
     47.58     -40.53       2.55       0.00       0.00       0.00       0.30       0.01

> <Gold.PLP.Fitness>
47.5795

> <Gold.PLP.PLP>
-40.5276

> <Gold.PLP.part.hbond>
-2.0000

> <Gold.PLP.part.metal>
0.0000

> <Gold.PLP.part.buried>
-4.7093

> <Gold.PLP.part.nonpolar>
-35.0138

> <Gold.PLP.part.repulsive>
0.1404

> <Gold.PLP.ligand.clash>
0.0000

> <Gold.PLP.ligand.torsion>
0.2984

> <Gold.PLP.Chemscore.Hbond>
2.5475

> <Gold.PLP.Chemscore.CHOScore>
0.0000

> <Gold.PLP.Chemscore.Metal>
0.0000

> <Gold.Chemscore.Hbonds>
donor molecule, donor type, donor heavy atom, donor atom, acceptor molecule, acceptor atom, score
      L1  H    10    28       P1  1227  0.56
      L1  H    16    30       P1  1227  1.98

> <Gold.PLP.Chemscore.Internal.Correction>
0.0062

