#       Name:                EN300-366294_i001
#       Creating user name   fsindt
#       Creation time:       Mon Feb 27 23:38:58 2023


#       File generated by GOLD software.
#

@<TRIPOS>MOLECULE
EN300-366294_i001|amine_7|mol2|2142|dock17
    30    31     1
SMALL
USER_CHARGES


@<TRIPOS>ATOM
      1 Cl1          1.6903 -21.5322  14.0554 Cl             1 <1>                0.0000
      2 C2           0.7923 -20.0474  14.0036 C.2            1 <1>                0.0000
      3 C3           1.2585 -18.8201  13.5234 C.2            1 <1>                0.0000
      4 C4           0.2300 -17.9115  13.6642 C.2            1 <1>                0.0000
      5 N5          -0.8403 -18.5782  14.2202 N.pl3          1 <1>                0.0000
      6 C6          -0.4887 -19.8737  14.4168 C.2            1 <1>                0.0000
      7 Cl7         -1.5073 -21.1050  15.0948 Cl             1 <1>                0.0000
      8 C8           0.2687 -16.4950  13.2908 C.2            1 <1>                0.0000
      9 O9           0.6551 -15.6647  14.0924 O.2            1 <1>                0.0000
     10 N10         -0.1233 -16.1117  12.0596 N.am           1 <1>                0.0000
     11 C11         -0.0846 -14.6956  11.6863 C.3            1 <1>                0.0000
     12 C12          0.7704 -14.5227  10.4293 C.3            1 <1>                0.0000
     13 C13          0.4276 -13.1929   9.7237 C.3            1 <1>                0.0000
     14 C14          0.5094 -13.5067   8.2156 C.3            1 <1>                0.0000
     15 C15          0.8947 -14.9996   8.1368 C.3            1 <1>                0.0000
     16 N16          0.4413 -15.5720   9.4305 N.4            1 <1>                1.0000
     17 H17          2.2398 -18.6206  13.1185 H              1 <1>                0.0000
     18 H18         -1.0973 -14.3442  11.4881 H              1 <1>                0.0000
     19 H19          0.3477 -14.1164  12.5023 H              1 <1>                0.0000
     20 H20          1.8297 -14.5561  10.6834 H              1 <1>                0.0000
     21 H21         -0.5796 -12.8720   9.9895 H              1 <1>                0.0000
     22 H22          1.1534 -12.4248   9.9906 H              1 <1>                0.0000
     23 H23         -0.4576 -13.3397   7.7411 H              1 <1>                0.0000
     24 H24          1.2754 -12.8926   7.7422 H              1 <1>                0.0000
     25 H25          0.3794 -15.4819   7.3062 H              1 <1>                0.0000
     26 H26          1.9741 -15.1085   8.0304 H              1 <1>                0.0000
     27 H27         -1.7021 -18.1871  14.4329 H              1 <1>                0.0000
     28 H28         -0.4312 -16.7734  11.4206 H              1 <1>                0.0000
     29 H29          0.9429 -16.4233   9.6348 H              1 <1>                0.0000
     30 H30         -0.5531 -15.7422   9.4119 H              1 <1>                0.0000
@<TRIPOS>BOND
    1    1    2 1     
    2    2    3 1     
    3    2    6 2     
    4    3    4 2     
    5    3   17 1     
    6    4    5 1     
    7    4    8 1     
    8    5    6 1     
    9    5   27 1     
   10    6    7 1     
   11    8    9 2     
   12    8   10 am    
   13   10   11 1     
   14   10   28 1     
   15   11   12 1     
   16   11   18 1     
   17   11   19 1     
   18   12   13 1     
   19   12   16 1     
   20   12   20 1     
   21   13   14 1     
   22   13   21 1     
   23   13   22 1     
   24   14   15 1     
   25   14   23 1     
   26   14   24 1     
   27   15   16 1     
   28   15   25 1     
   29   15   26 1     
   30   16   29 1     
   31   16   30 1     
@<TRIPOS>SUBSTRUCTURE
      1 ****           1
@<TRIPOS>SET
DONOR_HYDROGENS      STATIC     ATOMS    <user>   **** ""
4 27 28 29 30
ATOM$RED        STATIC     ATOMS    COLORGROUP SYSTEM
4 27 28 29 30
@<TRIPOS>COMMENT
> <Gold.Version>
2022.2.0

> <Gold.Id.Protein>
3pbl|protein|mol2

> <Gold.Protein.RotatedTorsions>
[ 1303 1298 1297 1294 ] final   54.62 input  179.99 | X-H torsion
[ 2461 2456 2455 2452 ] final  117.79 input   30.03 | X-H torsion
[ 2515 2510 2509 2506 ] final   79.62 input  -89.99 | X-H torsion
[ 3721 3712 3711 3710 ] final  173.79 input -179.91 | X-H torsion
[ 3841 3832 3831 3830 ] final   71.03 input -179.91 | X-H torsion
[ 3767 3762 3761 3758 ] final   40.59 input  -89.99 | X-H torsion
[ 2472 2467 2466 2463 ] final  125.83 input  -89.97 | X-H torsion

> <Gold.Protein.ActiveResidues>
 VAL82   VAL86   LEU89   PHE106  VAL107  ASP110  VAL111  MET112  CYS114  THR115 
 CYS181  SER182  ILE183  PHE188  VAL189  ILE190  SER192  SER193  SER196  TRP342 
 PHE345  PHE346  HIS349  VAL350  TYR365  THR369  GLY372  TYR373 

> <Gold.Protein.RotatedAtoms>
    3.9351  -10.2714    4.5837 H   0  0  0  0  0  0  0  0  0  0  0  0  # atno 1303 bound_to 1298
    2.1309   -8.6192    8.0415 H   0  0  0  0  0  0  0  0  0  0  0  0  # atno 2461 bound_to 2456
   -5.4544   -5.1090    8.2142 H   0  0  0  0  0  0  0  0  0  0  0  0  # atno 2472 bound_to 2467
    2.0696   -7.6169    5.7188 H   0  0  0  0  0  0  0  0  0  0  0  0  # atno 2515 bound_to 2510
   -3.3063  -16.6476   13.4632 H   0  0  0  0  0  0  0  0  0  0  0  0  # atno 3721 bound_to 3712
   -4.8395  -23.1531   10.0868 H   0  0  0  0  0  0  0  0  0  0  0  0  # atno 3767 bound_to 3762
    2.6170  -20.9571    9.4347 H   0  0  0  0  0  0  0  0  0  0  0  0  # atno 3841 bound_to 3832
    3.5474   -8.9025    3.7824 LP  0  0  0  0  0  0  0  0  0  0  0  0  # atno 4297 bound_to 1298
    4.8797   -8.9470    4.7255 LP  0  0  0  0  0  0  0  0  0  0  0  0  # atno 4298 bound_to 1298
    1.0067   -8.0007    7.0311 LP  0  0  0  0  0  0  0  0  0  0  0  0  # atno 4299 bound_to 2456
    0.6004   -9.1883    8.0756 LP  0  0  0  0  0  0  0  0  0  0  0  0  # atno 4300 bound_to 2456
    2.7668   -8.1850    4.3562 LP  0  0  0  0  0  0  0  0  0  0  0  0  # atno 4301 bound_to 2510
    2.4604   -9.1977    5.6000 LP  0  0  0  0  0  0  0  0  0  0  0  0  # atno 4302 bound_to 2510
   -2.6997  -18.1341   13.4545 LP  0  0  0  0  0  0  0  0  0  0  0  0  # atno 4306 bound_to 3712
   -3.0108  -17.3723   14.8650 LP  0  0  0  0  0  0  0  0  0  0  0  0  # atno 4307 bound_to 3712
    1.4068  -19.9927    9.0088 LP  0  0  0  0  0  0  0  0  0  0  0  0  # atno 4314 bound_to 3832
    2.7996  -20.0039    8.1564 LP  0  0  0  0  0  0  0  0  0  0  0  0  # atno 4315 bound_to 3832
   -5.3293  -21.9496   11.0759 LP  0  0  0  0  0  0  0  0  0  0  0  0  # atno 4318 bound_to 3762
   -3.9586  -22.7726   11.4081 LP  0  0  0  0  0  0  0  0  0  0  0  0  # atno 4319 bound_to 3762
   -3.8557   -4.8550    7.9996 LP  0  0  0  0  0  0  0  0  0  0  0  0  # atno 4320 bound_to 2467
   -4.4070   -5.4295    9.4253 LP  0  0  0  0  0  0  0  0  0  0  0  0  # atno 4321 bound_to 2467

> <Gold.Score>
     Score     S(PLP)   S(hbond)     S(cho)   S(metal)  DE(clash)   DE(tors)     intcor
     46.36     -37.69       4.00       0.00       0.00       0.00       1.67       0.01

> <Gold.PLP.Fitness>
46.3566

> <Gold.PLP.PLP>
-37.6853

> <Gold.PLP.part.hbond>
-3.0000

> <Gold.PLP.part.metal>
0.0000

> <Gold.PLP.part.buried>
-5.4929

> <Gold.PLP.part.nonpolar>
-29.7917

> <Gold.PLP.part.repulsive>
0.0329

> <Gold.PLP.ligand.clash>
0.0000

> <Gold.PLP.ligand.torsion>
1.6674

> <Gold.PLP.Chemscore.Hbond>
4.0000

> <Gold.PLP.Chemscore.CHOScore>
0.0000

> <Gold.PLP.Chemscore.Metal>
0.0000

> <Gold.Chemscore.Hbonds>
donor molecule, donor type, donor heavy atom, donor atom, acceptor molecule, acceptor atom, score
      L1  H     5    27       P1  3712  1.00
      L1  H    16    29       P1  1227  2.00
      P1  H  2305  2313       L1     9  1.00

> <Gold.PLP.Chemscore.Internal.Correction>
0.0062

