#       Name:                EN300-366294_i001
#       Creating user name   fsindt
#       Creation time:       Mon Feb 27 23:38:54 2023


#       File generated by GOLD software.
#

@<TRIPOS>MOLECULE
EN300-366294_i001|amine_7|mol2|2142|dock11
    30    31     1
SMALL
USER_CHARGES


@<TRIPOS>ATOM
      1 Cl1         -1.0003 -12.0967   8.7009 Cl             1 <1>                0.0000
      2 C2          -0.1219 -13.4396   9.3631 C.2            1 <1>                0.0000
      3 C3          -0.0162 -13.7660  10.7183 C.2            1 <1>                0.0000
      4 C4           0.7665 -14.8988  10.8037 C.2            1 <1>                0.0000
      5 N5           1.1280 -15.2518   9.5215 N.pl3          1 <1>                0.0000
      6 C6           0.5792 -14.3623   8.6566 C.2            1 <1>                0.0000
      7 Cl7          0.7532 -14.3936   6.9297 Cl             1 <1>                0.0000
      8 C8           1.1449 -15.5993  12.0340 C.2            1 <1>                0.0000
      9 O9           0.5658 -15.3548  13.0762 O.2            1 <1>                0.0000
     10 N10          2.1342 -16.5142  12.0114 N.am           1 <1>                0.0000
     11 C11          2.5126 -17.2145  13.2413 C.3            1 <1>                0.0000
     12 C12          1.2999 -17.9661  13.7939 C.3            1 <1>                0.0000
     13 C13          1.7111 -18.8395  14.9988 C.3            1 <1>                0.0000
     14 C14          0.8721 -20.1271  14.8652 C.3            1 <1>                0.0000
     15 C15          0.0247 -19.9234  13.5910 C.3            1 <1>                0.0000
     16 N16          0.7872 -18.9324  12.7887 N.4            1 <1>                1.0000
     17 H17         -0.4630 -13.2313  11.5436 H              1 <1>                0.0000
     18 H18          3.3117 -17.9235  13.0246 H              1 <1>                0.0000
     19 H19          2.8589 -16.4910  13.9794 H              1 <1>                0.0000
     20 H20          0.5177 -17.2642  14.0826 H              1 <1>                0.0000
     21 H21          2.7745 -19.0739  14.9510 H              1 <1>                0.0000
     22 H22          1.4765 -18.3300  15.9332 H              1 <1>                0.0000
     23 H23          1.5237 -20.9936  14.7520 H              1 <1>                0.0000
     24 H24          0.2256 -20.2496  15.7342 H              1 <1>                0.0000
     25 H25         -0.0717 -20.8616  13.0445 H              1 <1>                0.0000
     26 H26         -0.9587 -19.5291  13.8474 H              1 <1>                0.0000
     27 H27          1.6803 -16.0111   9.2779 H              1 <1>                0.0000
     28 H28          2.5959 -16.7091  11.1807 H              1 <1>                0.0000
     29 H29          0.1792 -18.4680  12.1310 H              1 <1>                0.0000
     30 H30          1.5525 -19.3813  12.3082 H              1 <1>                0.0000
@<TRIPOS>BOND
    1    1    2 1     
    2    2    3 1     
    3    2    6 2     
    4    3    4 2     
    5    3   17 1     
    6    4    5 1     
    7    4    8 1     
    8    5    6 1     
    9    5   27 1     
   10    6    7 1     
   11    8    9 2     
   12    8   10 am    
   13   10   11 1     
   14   10   28 1     
   15   11   12 1     
   16   11   18 1     
   17   11   19 1     
   18   12   13 1     
   19   12   16 1     
   20   12   20 1     
   21   13   14 1     
   22   13   21 1     
   23   13   22 1     
   24   14   15 1     
   25   14   23 1     
   26   14   24 1     
   27   15   16 1     
   28   15   25 1     
   29   15   26 1     
   30   16   29 1     
   31   16   30 1     
@<TRIPOS>SUBSTRUCTURE
      1 ****           1
@<TRIPOS>SET
DONOR_HYDROGENS      STATIC     ATOMS    <user>   **** ""
4 27 28 29 30
ATOM$RED        STATIC     ATOMS    COLORGROUP SYSTEM
4 27 28 29 30
@<TRIPOS>COMMENT
> <Gold.Version>
2022.2.0

> <Gold.Id.Protein>
3pbl|protein|mol2

> <Gold.Protein.RotatedTorsions>
[ 1303 1298 1297 1294 ] final  -21.79 input  179.99 | X-H torsion
[ 2461 2456 2455 2452 ] final  -58.82 input   30.03 | X-H torsion
[ 2515 2510 2509 2506 ] final  150.17 input  -89.99 | X-H torsion
[ 3721 3712 3711 3710 ] final  -22.81 input -179.91 | X-H torsion
[ 3841 3832 3831 3830 ] final -138.29 input -179.91 | X-H torsion
[ 3767 3762 3761 3758 ] final   53.87 input  -89.99 | X-H torsion
[ 2472 2467 2466 2463 ] final  138.24 input  -89.97 | X-H torsion

> <Gold.Protein.ActiveResidues>
 VAL82   VAL86   LEU89   PHE106  VAL107  ASP110  VAL111  MET112  CYS114  THR115 
 CYS181  SER182  ILE183  PHE188  VAL189  ILE190  SER192  SER193  SER196  TRP342 
 PHE345  PHE346  HIS349  VAL350  TYR365  THR369  GLY372  TYR373 

> <Gold.Protein.RotatedAtoms>
    3.3294   -9.5596    3.8865 H   0  0  0  0  0  0  0  0  0  0  0  0  # atno 1303 bound_to 1298
    0.3764   -8.5456    7.3555 H   0  0  0  0  0  0  0  0  0  0  0  0  # atno 2461 bound_to 2456
   -5.5022   -5.1808    8.3988 H   0  0  0  0  0  0  0  0  0  0  0  0  # atno 2472 bound_to 2467
    2.1448   -8.6457    6.0664 H   0  0  0  0  0  0  0  0  0  0  0  0  # atno 2515 bound_to 2510
   -2.5663  -17.7748   14.5216 H   0  0  0  0  0  0  0  0  0  0  0  0  # atno 3721 bound_to 3712
   -4.6543  -23.2481   10.1514 H   0  0  0  0  0  0  0  0  0  0  0  0  # atno 3767 bound_to 3762
    2.4737  -19.6708    8.3716 H   0  0  0  0  0  0  0  0  0  0  0  0  # atno 3841 bound_to 3832
    4.5161   -8.5197    4.3070 LP  0  0  0  0  0  0  0  0  0  0  0  0  # atno 4297 bound_to 1298
    4.5169  -10.0419    4.8982 LP  0  0  0  0  0  0  0  0  0  0  0  0  # atno 4298 bound_to 1298
    1.4325   -9.2232    8.4010 LP  0  0  0  0  0  0  0  0  0  0  0  0  # atno 4299 bound_to 2456
    1.9287   -8.0393    7.3916 LP  0  0  0  0  0  0  0  0  0  0  0  0  # atno 4300 bound_to 2456
    2.3307   -7.4230    5.0005 LP  0  0  0  0  0  0  0  0  0  0  0  0  # atno 4301 bound_to 2510
    2.8213   -8.9303    4.6080 LP  0  0  0  0  0  0  0  0  0  0  0  0  # atno 4302 bound_to 2510
   -3.5397  -16.5666   14.1086 LP  0  0  0  0  0  0  0  0  0  0  0  0  # atno 4306 bound_to 3712
   -3.0252  -17.6383   12.9891 LP  0  0  0  0  0  0  0  0  0  0  0  0  # atno 4307 bound_to 3712
    2.9177  -21.0643    9.0327 LP  0  0  0  0  0  0  0  0  0  0  0  0  # atno 4314 bound_to 3832
    1.4542  -20.4183    9.3605 LP  0  0  0  0  0  0  0  0  0  0  0  0  # atno 4315 bound_to 3832
   -5.4296  -22.0181   10.8950 LP  0  0  0  0  0  0  0  0  0  0  0  0  # atno 4318 bound_to 3762
   -4.0435  -22.6090   11.5244 LP  0  0  0  0  0  0  0  0  0  0  0  0  # atno 4319 bound_to 3762
   -4.0024   -4.8216    7.8621 LP  0  0  0  0  0  0  0  0  0  0  0  0  # atno 4320 bound_to 2467
   -4.2125   -5.3911    9.3781 LP  0  0  0  0  0  0  0  0  0  0  0  0  # atno 4321 bound_to 2467

> <Gold.Score>
     Score     S(PLP)   S(hbond)     S(cho)   S(metal)  DE(clash)   DE(tors)     intcor
     46.86     -41.06       2.00       0.00       0.00       0.00       0.10       0.01

> <Gold.PLP.Fitness>
46.8646

> <Gold.PLP.PLP>
-41.0618

> <Gold.PLP.part.hbond>
-2.0000

> <Gold.PLP.part.metal>
0.0000

> <Gold.PLP.part.buried>
-4.8131

> <Gold.PLP.part.nonpolar>
-34.7994

> <Gold.PLP.part.repulsive>
0.0544

> <Gold.PLP.ligand.clash>
0.0000

> <Gold.PLP.ligand.torsion>
0.1017

> <Gold.PLP.Chemscore.Hbond>
2.0000

> <Gold.PLP.Chemscore.CHOScore>
0.0000

> <Gold.PLP.Chemscore.Metal>
0.0000

> <Gold.Chemscore.Hbonds>
donor molecule, donor type, donor heavy atom, donor atom, acceptor molecule, acceptor atom, score
      L1  H     5    27       P1  1227  1.00
      L1  H    10    28       P1  1227  1.00

> <Gold.PLP.Chemscore.Internal.Correction>
0.0062

