#       Name:                EN300-366294_i001
#       Creating user name   fsindt
#       Creation time:       Mon Feb 27 23:38:49 2023


#       File generated by GOLD software.
#

@<TRIPOS>MOLECULE
EN300-366294_i001|amine_7|mol2|2142|dock4
    30    31     1
SMALL
USER_CHARGES


@<TRIPOS>ATOM
      1 Cl1          0.2155 -21.9007  11.3991 Cl             1 <1>                0.0000
      2 C2          -0.2661 -20.3328  11.9679 C.2            1 <1>                0.0000
      3 C3           0.1410 -19.1046  11.4387 C.2            1 <1>                0.0000
      4 C4          -0.4733 -18.1181  12.1821 C.2            1 <1>                0.0000
      5 N5          -1.2392 -18.7393  13.1447 N.pl3          1 <1>                0.0000
      6 C6          -1.1092 -20.0821  13.0015 C.2            1 <1>                0.0000
      7 Cl7         -1.8864 -21.2828  13.9852 Cl             1 <1>                0.0000
      8 C8          -0.3360 -16.6726  11.9843 C.2            1 <1>                0.0000
      9 O9          -0.9378 -15.8997  12.7067 O.2            1 <1>                0.0000
     10 N10          0.4568 -16.1990  11.0027 N.am           1 <1>                0.0000
     11 C11          0.5940 -14.7539  10.8050 C.3            1 <1>                0.0000
     12 C12          1.2098 -14.4833   9.4307 C.3            1 <1>                0.0000
     13 C13          0.6587 -13.1661   8.8437 C.3            1 <1>                0.0000
     14 C14          0.5068 -13.4336   7.3321 C.3            1 <1>                0.0000
     15 C15          0.9790 -14.8899   7.1330 C.3            1 <1>                0.0000
     16 N16          0.7927 -15.5288   8.4612 N.4            1 <1>                1.0000
     17 H17          0.8111 -18.9560  10.6047 H              1 <1>                0.0000
     18 H18         -0.3881 -14.2845  10.8618 H              1 <1>                0.0000
     19 H19          1.2395 -14.3409  11.5801 H              1 <1>                0.0000
     20 H20          2.2965 -14.4417   9.5035 H              1 <1>                0.0000
     21 H21         -0.3095 -12.9306   9.2856 H              1 <1>                0.0000
     22 H22          1.3623 -12.3516   9.0153 H              1 <1>                0.0000
     23 H23         -0.5359 -13.3293   7.0320 H              1 <1>                0.0000
     24 H24          1.1360 -12.7503   6.7616 H              1 <1>                0.0000
     25 H25          0.3665 -15.3888   6.3819 H              1 <1>                0.0000
     26 H26          2.0299 -14.9127   6.8442 H              1 <1>                0.0000
     27 H27         -1.7827 -18.2912  13.8116 H              1 <1>                0.0000
     28 H28          0.9364 -16.8150  10.4269 H              1 <1>                0.0000
     29 H29          1.3811 -16.3439   8.5463 H              1 <1>                0.0000
     30 H30         -0.1758 -15.7743   8.6018 H              1 <1>                0.0000
@<TRIPOS>BOND
    1    1    2 1     
    2    2    3 1     
    3    2    6 2     
    4    3    4 2     
    5    3   17 1     
    6    4    5 1     
    7    4    8 1     
    8    5    6 1     
    9    5   27 1     
   10    6    7 1     
   11    8    9 2     
   12    8   10 am    
   13   10   11 1     
   14   10   28 1     
   15   11   12 1     
   16   11   18 1     
   17   11   19 1     
   18   12   13 1     
   19   12   16 1     
   20   12   20 1     
   21   13   14 1     
   22   13   21 1     
   23   13   22 1     
   24   14   15 1     
   25   14   23 1     
   26   14   24 1     
   27   15   16 1     
   28   15   25 1     
   29   15   26 1     
   30   16   29 1     
   31   16   30 1     
@<TRIPOS>SUBSTRUCTURE
      1 ****           1
@<TRIPOS>SET
DONOR_HYDROGENS      STATIC     ATOMS    <user>   **** ""
4 27 28 29 30
ATOM$RED        STATIC     ATOMS    COLORGROUP SYSTEM
4 27 28 29 30
@<TRIPOS>COMMENT
> <Gold.Version>
2022.2.0

> <Gold.Id.Protein>
3pbl|protein|mol2

> <Gold.Protein.RotatedTorsions>
[ 1303 1298 1297 1294 ] final    2.31 input  179.99 | X-H torsion
[ 2461 2456 2455 2452 ] final  -63.64 input   30.03 | X-H torsion
[ 2515 2510 2509 2506 ] final -137.89 input  -89.99 | X-H torsion
[ 3721 3712 3711 3710 ] final -146.89 input -179.91 | X-H torsion
[ 3841 3832 3831 3830 ] final   -6.21 input -179.91 | X-H torsion
[ 3767 3762 3761 3758 ] final -175.73 input  -89.99 | X-H torsion
[ 2472 2467 2466 2463 ] final  140.97 input  -89.97 | X-H torsion

> <Gold.Protein.ActiveResidues>
 VAL82   VAL86   LEU89   PHE106  VAL107  ASP110  VAL111  MET112  CYS114  THR115 
 CYS181  SER182  ILE183  PHE188  VAL189  ILE190  SER192  SER193  SER196  TRP342 
 PHE345  PHE346  HIS349  VAL350  TYR365  THR369  GLY372  TYR373 

> <Gold.Protein.RotatedAtoms>
    3.3986   -9.9022    4.0675 H   0  0  0  0  0  0  0  0  0  0  0  0  # atno 1303 bound_to 1298
    0.3554   -8.6032    7.4057 H   0  0  0  0  0  0  0  0  0  0  0  0  # atno 2461 bound_to 2456
   -5.5069   -5.1965    8.4408 H   0  0  0  0  0  0  0  0  0  0  0  0  # atno 2472 bound_to 2467
    2.6124   -9.2570    5.2705 H   0  0  0  0  0  0  0  0  0  0  0  0  # atno 2515 bound_to 2510
   -3.3199  -16.5352   14.0349 H   0  0  0  0  0  0  0  0  0  0  0  0  # atno 3721 bound_to 3712
   -4.1347  -22.4804   11.5908 H   0  0  0  0  0  0  0  0  0  0  0  0  # atno 3767 bound_to 3762
    1.6868  -20.4148    9.5250 H   0  0  0  0  0  0  0  0  0  0  0  0  # atno 3841 bound_to 3832
    4.2017   -8.4805    4.0733 LP  0  0  0  0  0  0  0  0  0  0  0  0  # atno 4297 bound_to 1298
    4.7621   -9.7384    4.9509 LP  0  0  0  0  0  0  0  0  0  0  0  0  # atno 4298 bound_to 1298
    1.5069   -9.1965    8.4003 LP  0  0  0  0  0  0  0  0  0  0  0  0  # atno 4299 bound_to 2456
    1.8752   -8.0085    7.3421 LP  0  0  0  0  0  0  0  0  0  0  0  0  # atno 4300 bound_to 2456
    2.0293   -7.8948    5.9562 LP  0  0  0  0  0  0  0  0  0  0  0  0  # atno 4301 bound_to 2510
    2.6549   -7.8469    4.4486 LP  0  0  0  0  0  0  0  0  0  0  0  0  # atno 4302 bound_to 2510
   -2.9672  -17.7337   13.0265 LP  0  0  0  0  0  0  0  0  0  0  0  0  # atno 4306 bound_to 3712
   -2.7276  -17.9025   14.6330 LP  0  0  0  0  0  0  0  0  0  0  0  0  # atno 4307 bound_to 3712
    2.2385  -19.6767    8.2109 LP  0  0  0  0  0  0  0  0  0  0  0  0  # atno 4314 bound_to 3832
    3.0424  -20.9464    8.8499 LP  0  0  0  0  0  0  0  0  0  0  0  0  # atno 4315 bound_to 3832
   -4.5110  -23.2998   10.2292 LP  0  0  0  0  0  0  0  0  0  0  0  0  # atno 4318 bound_to 3762
   -5.4814  -22.0947   10.7514 LP  0  0  0  0  0  0  0  0  0  0  0  0  # atno 4319 bound_to 3762
   -4.0386   -4.8162    7.8360 LP  0  0  0  0  0  0  0  0  0  0  0  0  # atno 4320 bound_to 2467
   -4.1716   -5.3809    9.3624 LP  0  0  0  0  0  0  0  0  0  0  0  0  # atno 4321 bound_to 2467

> <Gold.Score>
     Score     S(PLP)   S(hbond)     S(cho)   S(metal)  DE(clash)   DE(tors)     intcor
     50.94     -40.54       3.78       0.00       0.00       0.00       0.48       0.01

> <Gold.PLP.Fitness>
50.9352

> <Gold.PLP.PLP>
-40.5396

> <Gold.PLP.part.hbond>
-3.6574

> <Gold.PLP.part.metal>
0.0000

> <Gold.PLP.part.buried>
-4.3803

> <Gold.PLP.part.nonpolar>
-33.4989

> <Gold.PLP.part.repulsive>
0.0948

> <Gold.PLP.ligand.clash>
0.0000

> <Gold.PLP.ligand.torsion>
0.4822

> <Gold.PLP.Chemscore.Hbond>
3.7840

> <Gold.PLP.Chemscore.CHOScore>
0.0000

> <Gold.PLP.Chemscore.Metal>
0.0000

> <Gold.Chemscore.Hbonds>
donor molecule, donor type, donor heavy atom, donor atom, acceptor molecule, acceptor atom, score
      L1  H     5    27       P1  3712  0.78
      L1  H    10    28       P1  1227  1.00
      L1  H    16    29       P1  1227  2.00

> <Gold.PLP.Chemscore.Internal.Correction>
0.0081

