#       Name:                EN300-366294_i001
#       Creating user name   fsindt
#       Creation time:       Mon Feb 27 23:38:51 2023


#       File generated by GOLD software.
#

@<TRIPOS>MOLECULE
EN300-366294_i001|amine_7|mol2|2142|dock8
    30    31     1
SMALL
USER_CHARGES


@<TRIPOS>ATOM
      1 Cl1         -0.7078 -22.3716  11.3698 Cl             1 <1>                0.0000
      2 C2          -0.2290 -20.8007  11.9328 C.2            1 <1>                0.0000
      3 C3          -0.6677 -19.5750  11.4235 C.2            1 <1>                0.0000
      4 C4          -0.0448 -18.5848  12.1547 C.2            1 <1>                0.0000
      5 N5           0.7573 -19.2013  13.0905 N.pl3          1 <1>                0.0000
      6 C6           0.6332 -20.5449  12.9493 C.2            1 <1>                0.0000
      7 Cl7          1.4508 -21.7409  13.9056 Cl             1 <1>                0.0000
      8 C8          -0.2062 -17.1401  11.9695 C.2            1 <1>                0.0000
      9 O9          -1.0382 -16.5327  12.6178 O.2            1 <1>                0.0000
     10 N10          0.5668 -16.4840  11.0816 N.am           1 <1>                0.0000
     11 C11          0.4055 -15.0397  10.8965 C.3            1 <1>                0.0000
     12 C12          0.9783 -14.6326   9.5374 C.3            1 <1>                0.0000
     13 C13          0.2972 -13.3431   9.0306 C.3            1 <1>                0.0000
     14 C14          0.1563 -13.5368   7.5067 C.3            1 <1>                0.0000
     15 C15          0.7639 -14.9268   7.2210 C.3            1 <1>                0.0000
     16 N16          0.6535 -15.6559   8.5107 N.4            1 <1>                1.0000
     17 H17         -1.3634 -19.4305  10.6101 H              1 <1>                0.0000
     18 H18         -0.6535 -14.7844  10.9356 H              1 <1>                0.0000
     19 H19          0.9363 -14.5105  11.6878 H              1 <1>                0.0000
     20 H20          2.0567 -14.4906   9.6074 H              1 <1>                0.0000
     21 H21         -0.6845 -13.2278   9.4900 H              1 <1>                0.0000
     22 H22          0.9211 -12.4757   9.2459 H              1 <1>                0.0000
     23 H23         -0.8947 -13.5164   7.2181 H              1 <1>                0.0000
     24 H24          0.7110 -12.7644   6.9740 H              1 <1>                0.0000
     25 H25          0.1946 -15.4385   6.4451 H              1 <1>                0.0000
     26 H26          1.8092 -14.8316   6.9265 H              1 <1>                0.0000
     27 H27          1.3152 -18.7500  13.7432 H              1 <1>                0.0000
     28 H28          1.2299 -16.9681  10.5649 H              1 <1>                0.0000
     29 H29          1.3183 -16.4141   8.5455 H              1 <1>                0.0000
     30 H30         -0.2854 -16.0014   8.6414 H              1 <1>                0.0000
@<TRIPOS>BOND
    1    1    2 1     
    2    2    3 1     
    3    2    6 2     
    4    3    4 2     
    5    3   17 1     
    6    4    5 1     
    7    4    8 1     
    8    5    6 1     
    9    5   27 1     
   10    6    7 1     
   11    8    9 2     
   12    8   10 am    
   13   10   11 1     
   14   10   28 1     
   15   11   12 1     
   16   11   18 1     
   17   11   19 1     
   18   12   13 1     
   19   12   16 1     
   20   12   20 1     
   21   13   14 1     
   22   13   21 1     
   23   13   22 1     
   24   14   15 1     
   25   14   23 1     
   26   14   24 1     
   27   15   16 1     
   28   15   25 1     
   29   15   26 1     
   30   16   29 1     
   31   16   30 1     
@<TRIPOS>SUBSTRUCTURE
      1 ****           1
@<TRIPOS>SET
DONOR_HYDROGENS      STATIC     ATOMS    <user>   **** ""
4 27 28 29 30
ATOM$RED        STATIC     ATOMS    COLORGROUP SYSTEM
4 27 28 29 30
@<TRIPOS>COMMENT
> <Gold.Version>
2022.2.0

> <Gold.Id.Protein>
3pbl|protein|mol2

> <Gold.Protein.RotatedTorsions>
[ 1303 1298 1297 1294 ] final  142.94 input  179.99 | X-H torsion
[ 2461 2456 2455 2452 ] final   59.28 input   30.03 | X-H torsion
[ 2515 2510 2509 2506 ] final -164.28 input  -89.99 | X-H torsion
[ 3721 3712 3711 3710 ] final   96.26 input -179.91 | X-H torsion
[ 3841 3832 3831 3830 ] final   50.42 input -179.91 | X-H torsion
[ 3767 3762 3761 3758 ] final  -15.10 input  -89.99 | X-H torsion
[ 2472 2467 2466 2463 ] final   38.19 input  -89.97 | X-H torsion

> <Gold.Protein.ActiveResidues>
 VAL82   VAL86   LEU89   PHE106  VAL107  ASP110  VAL111  MET112  CYS114  THR115 
 CYS181  SER182  ILE183  PHE188  VAL189  ILE190  SER192  SER193  SER196  TRP342 
 PHE345  PHE346  HIS349  VAL350  TYR365  THR369  GLY372  TYR373 

> <Gold.Protein.RotatedAtoms>
    4.8839   -9.4256    4.9147 H   0  0  0  0  0  0  0  0  0  0  0  0  # atno 1303 bound_to 1298
    1.9084   -8.0265    7.3717 H   0  0  0  0  0  0  0  0  0  0  0  0  # atno 2461 bound_to 2456
   -4.2906   -4.7993    7.7101 H   0  0  0  0  0  0  0  0  0  0  0  0  # atno 2472 bound_to 2467
    2.4332   -9.1730    5.6525 H   0  0  0  0  0  0  0  0  0  0  0  0  # atno 2515 bound_to 2510
   -2.8301  -17.5395   13.0708 H   0  0  0  0  0  0  0  0  0  0  0  0  # atno 3721 bound_to 3712
   -5.4363  -22.5300   10.2643 H   0  0  0  0  0  0  0  0  0  0  0  0  # atno 3767 bound_to 3762
    2.3398  -20.9110    9.5649 H   0  0  0  0  0  0  0  0  0  0  0  0  # atno 3841 bound_to 3832
    3.5590  -10.1245    4.2646 LP  0  0  0  0  0  0  0  0  0  0  0  0  # atno 4297 bound_to 1298
    3.9190   -8.5712    3.9121 LP  0  0  0  0  0  0  0  0  0  0  0  0  # atno 4298 bound_to 1298
    0.3676   -8.5683    7.3750 LP  0  0  0  0  0  0  0  0  0  0  0  0  # atno 4299 bound_to 2456
    1.4620   -9.2132    8.4013 LP  0  0  0  0  0  0  0  0  0  0  0  0  # atno 4300 bound_to 2456
    2.0822   -7.5785    5.6690 LP  0  0  0  0  0  0  0  0  0  0  0  0  # atno 4301 bound_to 2510
    2.7814   -8.2472    4.3535 LP  0  0  0  0  0  0  0  0  0  0  0  0  # atno 4302 bound_to 2510
   -2.7266  -17.9046   14.6309 LP  0  0  0  0  0  0  0  0  0  0  0  0  # atno 4306 bound_to 3712
   -3.5337  -16.5720   14.1416 LP  0  0  0  0  0  0  0  0  0  0  0  0  # atno 4307 bound_to 3712
    1.5219  -19.7911    8.7570 LP  0  0  0  0  0  0  0  0  0  0  0  0  # atno 4314 bound_to 3832
    3.0046  -20.2588    8.2577 LP  0  0  0  0  0  0  0  0  0  0  0  0  # atno 4315 bound_to 3832
   -4.6385  -22.0626   11.6104 LP  0  0  0  0  0  0  0  0  0  0  0  0  # atno 4318 bound_to 3762
   -4.0528  -23.2824   10.6962 LP  0  0  0  0  0  0  0  0  0  0  0  0  # atno 4319 bound_to 3762
   -3.9385   -5.3048    9.2224 LP  0  0  0  0  0  0  0  0  0  0  0  0  # atno 4320 bound_to 2467
   -5.4878   -5.2894    8.7065 LP  0  0  0  0  0  0  0  0  0  0  0  0  # atno 4321 bound_to 2467

> <Gold.Score>
     Score     S(PLP)   S(hbond)     S(cho)   S(metal)  DE(clash)   DE(tors)     intcor
     49.82     -42.92       3.56       0.00       0.00       0.00       1.89       0.01

> <Gold.PLP.Fitness>
49.8161

> <Gold.PLP.PLP>
-42.9227

> <Gold.PLP.part.hbond>
-3.0000

> <Gold.PLP.part.metal>
0.0000

> <Gold.PLP.part.buried>
-4.9116

> <Gold.PLP.part.nonpolar>
-35.0595

> <Gold.PLP.part.repulsive>
0.0771

> <Gold.PLP.ligand.clash>
0.0000

> <Gold.PLP.ligand.torsion>
1.8891

> <Gold.PLP.Chemscore.Hbond>
3.5551

> <Gold.PLP.Chemscore.CHOScore>
0.0000

> <Gold.PLP.Chemscore.Metal>
0.0000

> <Gold.Chemscore.Hbonds>
donor molecule, donor type, donor heavy atom, donor atom, acceptor molecule, acceptor atom, score
      L1  H    10    28       P1  1227  1.00
      L1  H    16    29       P1  1227  2.00
      P1  H  3712  3721       L1     9  0.56

> <Gold.PLP.Chemscore.Internal.Correction>
0.0062

