#       Name:                EN300-366294_i001
#       Creating user name   fsindt
#       Creation time:       Mon Feb 27 23:38:50 2023


#       File generated by GOLD software.
#

@<TRIPOS>MOLECULE
EN300-366294_i001|amine_7|mol2|2142|dock6
    30    31     1
SMALL
USER_CHARGES


@<TRIPOS>ATOM
      1 Cl1          1.1000 -12.5837   6.5964 Cl             1 <1>                0.0000
      2 C2           0.7385 -13.5867   7.9664 C.2            1 <1>                0.0000
      3 C3           0.3424 -13.1412   9.2308 C.2            1 <1>                0.0000
      4 C4           0.1589 -14.2599  10.0168 C.2            1 <1>                0.0000
      5 N5           0.4394 -15.3637   9.2408 N.pl3          1 <1>                0.0000
      6 C6           0.7848 -14.9428   7.9982 C.2            1 <1>                0.0000
      7 Cl7          1.2236 -15.9700   6.6693 Cl             1 <1>                0.0000
      8 C8          -0.2580 -14.2724  11.4217 C.2            1 <1>                0.0000
      9 O9          -1.0009 -13.4056  11.8437 O.2            1 <1>                0.0000
     10 N10          0.1812 -15.2438  12.2463 N.am           1 <1>                0.0000
     11 C11         -0.2355 -15.2563  13.6507 C.3            1 <1>                0.0000
     12 C12          0.1299 -16.6026  14.2792 C.3            1 <1>                0.0000
     13 C13          1.6607 -16.8026  14.2713 C.3            1 <1>                0.0000
     14 C14          1.8673 -18.3030  13.9785 C.3            1 <1>                0.0000
     15 C15          0.4441 -18.8833  13.8340 C.3            1 <1>                0.0000
     16 N16         -0.3979 -17.7197  13.4542 N.4            1 <1>                1.0000
     17 H17          0.2059 -12.1139   9.5352 H              1 <1>                0.0000
     18 H18          0.2723 -14.4550  14.1876 H              1 <1>                0.0000
     19 H19         -1.3137 -15.1078  13.7111 H              1 <1>                0.0000
     20 H20         -0.2562 -16.6636  15.2966 H              1 <1>                0.0000
     21 H21          2.1175 -16.1977  13.4881 H              1 <1>                0.0000
     22 H22          2.0811 -16.5452  15.2434 H              1 <1>                0.0000
     23 H23          2.4257 -18.4345  13.0516 H              1 <1>                0.0000
     24 H24          2.3892 -18.7821  14.8069 H              1 <1>                0.0000
     25 H25          0.4202 -19.6414  13.0513 H              1 <1>                0.0000
     26 H26          0.1068 -19.3033  14.7817 H              1 <1>                0.0000
     27 H27          0.3945 -16.2874   9.5333 H              1 <1>                0.0000
     28 H28          0.7733 -15.9346  11.9099 H              1 <1>                0.0000
     29 H29         -1.3657 -17.8966  13.6775 H              1 <1>                0.0000
     30 H30         -0.2925 -17.5136  12.4721 H              1 <1>                0.0000
@<TRIPOS>BOND
    1    1    2 1     
    2    2    3 1     
    3    2    6 2     
    4    3    4 2     
    5    3   17 1     
    6    4    5 1     
    7    4    8 1     
    8    5    6 1     
    9    5   27 1     
   10    6    7 1     
   11    8    9 2     
   12    8   10 am    
   13   10   11 1     
   14   10   28 1     
   15   11   12 1     
   16   11   18 1     
   17   11   19 1     
   18   12   13 1     
   19   12   16 1     
   20   12   20 1     
   21   13   14 1     
   22   13   21 1     
   23   13   22 1     
   24   14   15 1     
   25   14   23 1     
   26   14   24 1     
   27   15   16 1     
   28   15   25 1     
   29   15   26 1     
   30   16   29 1     
   31   16   30 1     
@<TRIPOS>SUBSTRUCTURE
      1 ****           1
@<TRIPOS>SET
DONOR_HYDROGENS      STATIC     ATOMS    <user>   **** ""
4 27 28 29 30
ATOM$RED        STATIC     ATOMS    COLORGROUP SYSTEM
4 27 28 29 30
@<TRIPOS>COMMENT
> <Gold.Version>
2022.2.0

> <Gold.Id.Protein>
3pbl|protein|mol2

> <Gold.Protein.RotatedTorsions>
[ 1303 1298 1297 1294 ] final  150.62 input  179.99 | X-H torsion
[ 2461 2456 2455 2452 ] final  134.79 input   30.03 | X-H torsion
[ 2515 2510 2509 2506 ] final  118.27 input  -89.99 | X-H torsion
[ 3721 3712 3711 3710 ] final -147.56 input -179.91 | X-H torsion
[ 3841 3832 3831 3830 ] final  -13.97 input -179.91 | X-H torsion
[ 3767 3762 3761 3758 ] final   -1.12 input  -89.99 | X-H torsion
[ 2472 2467 2466 2463 ] final  161.84 input  -89.97 | X-H torsion

> <Gold.Protein.ActiveResidues>
 VAL82   VAL86   LEU89   PHE106  VAL107  ASP110  VAL111  MET112  CYS114  THR115 
 CYS181  SER182  ILE183  PHE188  VAL189  ILE190  SER192  SER193  SER196  TRP342 
 PHE345  PHE346  HIS349  VAL350  TYR365  THR369  GLY372  TYR373 

> <Gold.Protein.RotatedAtoms>
    4.9048   -9.3054    4.8826 H   0  0  0  0  0  0  0  0  0  0  0  0  # atno 1303 bound_to 1298
    2.0236   -8.8191    8.2037 H   0  0  0  0  0  0  0  0  0  0  0  0  # atno 2461 bound_to 2456
   -5.4730   -5.3084    8.7616 H   0  0  0  0  0  0  0  0  0  0  0  0  # atno 2472 bound_to 2467
    2.0386   -8.1388    6.0591 H   0  0  0  0  0  0  0  0  0  0  0  0  # atno 2515 bound_to 2510
   -3.3213  -16.5342   14.0251 H   0  0  0  0  0  0  0  0  0  0  0  0  # atno 3721 bound_to 3712
   -5.3331  -22.7030   10.1543 H   0  0  0  0  0  0  0  0  0  0  0  0  # atno 3767 bound_to 3762
    1.6353  -20.3225    9.4743 H   0  0  0  0  0  0  0  0  0  0  0  0  # atno 3841 bound_to 3832
    3.6385  -10.1837    4.3428 LP  0  0  0  0  0  0  0  0  0  0  0  0  # atno 4297 bound_to 1298
    3.8186   -8.6323    3.8660 LP  0  0  0  0  0  0  0  0  0  0  0  0  # atno 4298 bound_to 1298
    1.2756   -7.9309    7.0553 LP  0  0  0  0  0  0  0  0  0  0  0  0  # atno 4299 bound_to 2456
    0.4388   -9.0582    7.8893 LP  0  0  0  0  0  0  0  0  0  0  0  0  # atno 4300 bound_to 2456
    2.5525   -7.6473    4.5894 LP  0  0  0  0  0  0  0  0  0  0  0  0  # atno 4301 bound_to 2510
    2.7058   -9.2132    5.0264 LP  0  0  0  0  0  0  0  0  0  0  0  0  # atno 4302 bound_to 2510
   -2.9618  -17.7424   13.0307 LP  0  0  0  0  0  0  0  0  0  0  0  0  # atno 4306 bound_to 3712
   -2.7314  -17.8949   14.6402 LP  0  0  0  0  0  0  0  0  0  0  0  0  # atno 4307 bound_to 3712
    2.3561  -19.7172    8.1743 LP  0  0  0  0  0  0  0  0  0  0  0  0  # atno 4314 bound_to 3832
    2.9843  -21.0125    8.9451 LP  0  0  0  0  0  0  0  0  0  0  0  0  # atno 4315 bound_to 3832
   -4.8336  -21.9744   11.5279 LP  0  0  0  0  0  0  0  0  0  0  0  0  # atno 4318 bound_to 3762
   -3.9609  -23.1977   10.8886 LP  0  0  0  0  0  0  0  0  0  0  0  0  # atno 4319 bound_to 3762
   -4.3482   -4.7987    7.6931 LP  0  0  0  0  0  0  0  0  0  0  0  0  # atno 4320 bound_to 2467
   -3.8959   -5.2865    9.1845 LP  0  0  0  0  0  0  0  0  0  0  0  0  # atno 4321 bound_to 2467

> <Gold.Score>
     Score     S(PLP)   S(hbond)     S(cho)   S(metal)  DE(clash)   DE(tors)     intcor
     48.29     -46.29       1.00       0.00       0.00       0.00       0.50       0.01

> <Gold.PLP.Fitness>
48.2861

> <Gold.PLP.PLP>
-46.2859

> <Gold.PLP.part.hbond>
-2.0345

> <Gold.PLP.part.metal>
0.0000

> <Gold.PLP.part.buried>
-6.3058

> <Gold.PLP.part.nonpolar>
-38.8414

> <Gold.PLP.part.repulsive>
0.1189

> <Gold.PLP.ligand.clash>
0.0000

> <Gold.PLP.ligand.torsion>
0.5039

> <Gold.PLP.Chemscore.Hbond>
1.0000

> <Gold.PLP.Chemscore.CHOScore>
0.0000

> <Gold.PLP.Chemscore.Metal>
0.0000

> <Gold.Chemscore.Hbonds>
donor molecule, donor type, donor heavy atom, donor atom, acceptor molecule, acceptor atom, score
      L1  H    16    29       P1  3712  1.00

> <Gold.PLP.Chemscore.Internal.Correction>
0.0081

