#       Name:                EN300-366294_i001
#       Creating user name   fsindt
#       Creation time:       Mon Feb 27 23:38:55 2023


#       File generated by GOLD software.
#

@<TRIPOS>MOLECULE
EN300-366294_i001|amine_7|mol2|2142|dock13
    30    31     1
SMALL
USER_CHARGES


@<TRIPOS>ATOM
      1 Cl1          1.3943 -20.7016  13.6165 Cl             1 <1>                0.0000
      2 C2           0.7509 -19.0893  13.6004 C.2            1 <1>                0.0000
      3 C3           1.0032 -18.1122  12.6330 C.2            1 <1>                0.0000
      4 C4           0.2982 -16.9848  13.0006 C.2            1 <1>                0.0000
      5 N5          -0.3692 -17.2752  14.1707 N.pl3          1 <1>                0.0000
      6 C6          -0.0908 -18.5557  14.5217 C.2            1 <1>                0.0000
      7 Cl7         -0.7030 -19.3745  15.9247 Cl             1 <1>                0.0000
      8 C8           0.2655 -15.7101  12.2783 C.2            1 <1>                0.0000
      9 O9          -0.4001 -14.7852  12.7061 O.2            1 <1>                0.0000
     10 N10          0.9726 -15.5619  11.1406 N.am           1 <1>                0.0000
     11 C11          0.9399 -14.2876  10.4186 C.3            1 <1>                0.0000
     12 C12          1.4136 -14.5042   8.9799 C.3            1 <1>                0.0000
     13 C13          1.0332 -13.2942   8.0999 C.3            1 <1>                0.0000
     14 C14          0.6453 -13.8980   6.7344 C.3            1 <1>                0.0000
     15 C15          0.8240 -15.4219   6.9042 C.3            1 <1>                0.0000
     16 N16          0.6987 -15.6529   8.3665 N.4            1 <1>                1.0000
     17 H17          1.6322 -18.2197  11.7616 H              1 <1>                0.0000
     18 H18         -0.0790 -13.9002  10.4111 H              1 <1>                0.0000
     19 H19          1.5969 -13.5726  10.9137 H              1 <1>                0.0000
     20 H20          2.4909 -14.6680   8.9559 H              1 <1>                0.0000
     21 H21          0.1860 -12.7625   8.5331 H              1 <1>                0.0000
     22 H22          1.8854 -12.6238   7.9891 H              1 <1>                0.0000
     23 H23         -0.3922 -13.6625   6.4973 H              1 <1>                0.0000
     24 H24          1.3072 -13.5239   5.9533 H              1 <1>                0.0000
     25 H25          0.0426 -15.9587   6.3663 H              1 <1>                0.0000
     26 H26          1.8089 -15.7306   6.5537 H              1 <1>                0.0000
     27 H27         -0.9445 -16.6665  14.6602 H              1 <1>                0.0000
     28 H28          1.5031 -16.2990  10.7996 H              1 <1>                0.0000
     29 H29          1.1400 -16.5223   8.6255 H              1 <1>                0.0000
     30 H30         -0.2721 -15.6522   8.6418 H              1 <1>                0.0000
@<TRIPOS>BOND
    1    1    2 1     
    2    2    3 1     
    3    2    6 2     
    4    3    4 2     
    5    3   17 1     
    6    4    5 1     
    7    4    8 1     
    8    5    6 1     
    9    5   27 1     
   10    6    7 1     
   11    8    9 2     
   12    8   10 am    
   13   10   11 1     
   14   10   28 1     
   15   11   12 1     
   16   11   18 1     
   17   11   19 1     
   18   12   13 1     
   19   12   16 1     
   20   12   20 1     
   21   13   14 1     
   22   13   21 1     
   23   13   22 1     
   24   14   15 1     
   25   14   23 1     
   26   14   24 1     
   27   15   16 1     
   28   15   25 1     
   29   15   26 1     
   30   16   29 1     
   31   16   30 1     
@<TRIPOS>SUBSTRUCTURE
      1 ****           1
@<TRIPOS>SET
DONOR_HYDROGENS      STATIC     ATOMS    <user>   **** ""
4 27 28 29 30
ATOM$RED        STATIC     ATOMS    COLORGROUP SYSTEM
4 27 28 29 30
@<TRIPOS>COMMENT
> <Gold.Version>
2022.2.0

> <Gold.Id.Protein>
3pbl|protein|mol2

> <Gold.Protein.RotatedTorsions>
[ 1303 1298 1297 1294 ] final   69.67 input  179.99 | X-H torsion
[ 2461 2456 2455 2452 ] final  127.47 input   30.03 | X-H torsion
[ 2515 2510 2509 2506 ] final   -7.96 input  -89.99 | X-H torsion
[ 3721 3712 3711 3710 ] final -126.44 input -179.91 | X-H torsion
[ 3841 3832 3831 3830 ] final   73.28 input -179.91 | X-H torsion
[ 3767 3762 3761 3758 ] final -173.83 input  -89.99 | X-H torsion
[ 2472 2467 2466 2463 ] final  118.82 input  -89.97 | X-H torsion

> <Gold.Protein.ActiveResidues>
 VAL82   VAL86   LEU89   PHE106  VAL107  ASP110  VAL111  MET112  CYS114  THR115 
 CYS181  SER182  ILE183  PHE188  VAL189  ILE190  SER192  SER193  SER196  TRP342 
 PHE345  PHE346  HIS349  VAL350  TYR365  THR369  GLY372  TYR373 

> <Gold.Protein.RotatedAtoms>
    4.1412  -10.2473    4.7175 H   0  0  0  0  0  0  0  0  0  0  0  0  # atno 1303 bound_to 1298
    2.0788   -8.7343    8.1383 H   0  0  0  0  0  0  0  0  0  0  0  0  # atno 2461 bound_to 2456
   -5.4090   -5.0688    8.1163 H   0  0  0  0  0  0  0  0  0  0  0  0  # atno 2472 bound_to 2467
    2.5937   -7.7188    4.5287 H   0  0  0  0  0  0  0  0  0  0  0  0  # atno 2515 bound_to 2510
   -3.2493  -16.6135   14.3238 H   0  0  0  0  0  0  0  0  0  0  0  0  # atno 3721 bound_to 3712
   -4.1536  -22.4574   11.6004 H   0  0  0  0  0  0  0  0  0  0  0  0  # atno 3767 bound_to 3762
    2.6457  -20.9568    9.4166 H   0  0  0  0  0  0  0  0  0  0  0  0  # atno 3841 bound_to 3832
    3.4255   -9.1172    3.7810 LP  0  0  0  0  0  0  0  0  0  0  0  0  # atno 4297 bound_to 1298
    4.7955   -8.7565    4.5930 LP  0  0  0  0  0  0  0  0  0  0  0  0  # atno 4298 bound_to 1298
    1.1587   -7.9540    7.0375 LP  0  0  0  0  0  0  0  0  0  0  0  0  # atno 4299 bound_to 2456
    0.5005   -9.1199    7.9724 LP  0  0  0  0  0  0  0  0  0  0  0  0  # atno 4300 bound_to 2456
    2.6719   -9.2388    5.1198 LP  0  0  0  0  0  0  0  0  0  0  0  0  # atno 4301 bound_to 2510
    2.0311   -8.0418    6.0270 LP  0  0  0  0  0  0  0  0  0  0  0  0  # atno 4302 bound_to 2510
   -3.1372  -17.4478   12.9566 LP  0  0  0  0  0  0  0  0  0  0  0  0  # atno 4306 bound_to 3712
   -2.6391  -18.0979   14.3694 LP  0  0  0  0  0  0  0  0  0  0  0  0  # atno 4307 bound_to 3712
    1.4007  -20.0184    9.0356 LP  0  0  0  0  0  0  0  0  0  0  0  0  # atno 4314 bound_to 3832
    2.7724  -19.9786    8.1505 LP  0  0  0  0  0  0  0  0  0  0  0  0  # atno 4315 bound_to 3832
   -4.4853  -23.3069   10.2456 LP  0  0  0  0  0  0  0  0  0  0  0  0  # atno 4318 bound_to 3762
   -5.4882  -22.1107   10.7253 LP  0  0  0  0  0  0  0  0  0  0  0  0  # atno 4319 bound_to 3762
   -3.7873   -4.8797    8.0889 LP  0  0  0  0  0  0  0  0  0  0  0  0  # atno 4320 bound_to 2467
   -4.5208   -5.4451    9.4339 LP  0  0  0  0  0  0  0  0  0  0  0  0  # atno 4321 bound_to 2467

> <Gold.Score>
     Score     S(PLP)   S(hbond)     S(cho)   S(metal)  DE(clash)   DE(tors)     intcor
     47.60     -39.25       2.93       0.00       0.00       0.00       0.21       0.01

> <Gold.PLP.Fitness>
47.6027

> <Gold.PLP.PLP>
-39.2458

> <Gold.PLP.part.hbond>
-3.0000

> <Gold.PLP.part.metal>
0.0000

> <Gold.PLP.part.buried>
-5.1496

> <Gold.PLP.part.nonpolar>
-31.9703

> <Gold.PLP.part.repulsive>
0.1243

> <Gold.PLP.ligand.clash>
0.0000

> <Gold.PLP.ligand.torsion>
0.2140

> <Gold.PLP.Chemscore.Hbond>
2.9263

> <Gold.PLP.Chemscore.CHOScore>
0.0000

> <Gold.PLP.Chemscore.Metal>
0.0000

> <Gold.Chemscore.Hbonds>
donor molecule, donor type, donor heavy atom, donor atom, acceptor molecule, acceptor atom, score
      L1  H    10    28       P1  1227  0.93
      L1  H    16    29       P1  1227  2.00

> <Gold.PLP.Chemscore.Internal.Correction>
0.0062

