#       Name:                EN300-366294_i001
#       Creating user name   fsindt
#       Creation time:       Mon Feb 27 23:38:59 2023


#       File generated by GOLD software.
#

@<TRIPOS>MOLECULE
EN300-366294_i001|amine_7|mol2|2142|dock18
    30    31     1
SMALL
USER_CHARGES


@<TRIPOS>ATOM
      1 Cl1         -1.3323 -10.4445  10.3873 Cl             1 <1>                0.0000
      2 C2          -0.7354 -12.0703  10.5070 C.2            1 <1>                0.0000
      3 C3          -1.0106 -12.9741  11.5373 C.2            1 <1>                0.0000
      4 C4          -0.3416 -14.1437  11.2412 C.2            1 <1>                0.0000
      5 N5           0.3269 -13.9505  10.0517 N.pl3          1 <1>                0.0000
      6 C6           0.0763 -12.6911   9.6139 C.2            1 <1>                0.0000
      7 Cl7          0.6997 -11.9860   8.1552 Cl             1 <1>                0.0000
      8 C8          -0.3415 -15.3687  12.0456 C.2            1 <1>                0.0000
      9 O9          -0.2948 -15.2995  13.2598 O.2            1 <1>                0.0000
     10 N10         -0.3932 -16.5720  11.4407 N.am           1 <1>                0.0000
     11 C11         -0.3931 -17.7966  12.2448 C.3            1 <1>                0.0000
     12 C12          1.0273 -18.0848  12.7349 C.3            1 <1>                0.0000
     13 C13          1.1785 -17.6783  14.2166 C.3            1 <1>                0.0000
     14 C14          2.6030 -17.0974  14.3294 C.3            1 <1>                0.0000
     15 C15          3.1928 -17.2018  12.9066 C.3            1 <1>                0.0000
     16 N16          2.0075 -17.2345  12.0115 N.4            1 <1>                1.0000
     17 H17         -1.6302 -12.7910  12.4028 H              1 <1>                0.0000
     18 H18         -1.0542 -17.6686  13.1019 H              1 <1>                0.0000
     19 H19         -0.7439 -18.6305  11.6367 H              1 <1>                0.0000
     20 H20          1.2671 -19.1399  12.6039 H              1 <1>                0.0000
     21 H21          0.4392 -16.9215  14.4787 H              1 <1>                0.0000
     22 H22          1.0733 -18.5509  14.8612 H              1 <1>                0.0000
     23 H23          2.5630 -16.0555  14.6472 H              1 <1>                0.0000
     24 H24          3.1971 -17.6849  15.0295 H              1 <1>                0.0000
     25 H25          3.8113 -16.3316  12.6866 H              1 <1>                0.0000
     26 H26          3.7735 -18.1183  12.8020 H              1 <1>                0.0000
     27 H27          0.8817 -14.6064   9.6012 H              1 <1>                0.0000
     28 H28         -0.4304 -16.6273  10.4729 H              1 <1>                0.0000
     29 H29          2.2471 -17.6495  11.1237 H              1 <1>                0.0000
     30 H30          1.6387 -16.3045  11.8802 H              1 <1>                0.0000
@<TRIPOS>BOND
    1    1    2 1     
    2    2    3 1     
    3    2    6 2     
    4    3    4 2     
    5    3   17 1     
    6    4    5 1     
    7    4    8 1     
    8    5    6 1     
    9    5   27 1     
   10    6    7 1     
   11    8    9 2     
   12    8   10 am    
   13   10   11 1     
   14   10   28 1     
   15   11   12 1     
   16   11   18 1     
   17   11   19 1     
   18   12   13 1     
   19   12   16 1     
   20   12   20 1     
   21   13   14 1     
   22   13   21 1     
   23   13   22 1     
   24   14   15 1     
   25   14   23 1     
   26   14   24 1     
   27   15   16 1     
   28   15   25 1     
   29   15   26 1     
   30   16   29 1     
   31   16   30 1     
@<TRIPOS>SUBSTRUCTURE
      1 ****           1
@<TRIPOS>SET
DONOR_HYDROGENS      STATIC     ATOMS    <user>   **** ""
4 27 28 29 30
ATOM$RED        STATIC     ATOMS    COLORGROUP SYSTEM
4 27 28 29 30
@<TRIPOS>COMMENT
> <Gold.Version>
2022.2.0

> <Gold.Id.Protein>
3pbl|protein|mol2

> <Gold.Protein.RotatedTorsions>
[ 1303 1298 1297 1294 ] final  -78.72 input  179.99 | X-H torsion
[ 2461 2456 2455 2452 ] final -159.51 input   30.03 | X-H torsion
[ 2515 2510 2509 2506 ] final  -13.13 input  -89.99 | X-H torsion
[ 3721 3712 3711 3710 ] final -159.42 input -179.91 | X-H torsion
[ 3841 3832 3831 3830 ] final -128.70 input -179.91 | X-H torsion
[ 3767 3762 3761 3758 ] final  133.86 input  -89.99 | X-H torsion
[ 2472 2467 2466 2463 ] final  -14.73 input  -89.97 | X-H torsion

> <Gold.Protein.ActiveResidues>
 VAL82   VAL86   LEU89   PHE106  VAL107  ASP110  VAL111  MET112  CYS114  THR115 
 CYS181  SER182  ILE183  PHE188  VAL189  ILE190  SER192  SER193  SER196  TRP342 
 PHE345  PHE346  HIS349  VAL350  TYR365  THR369  GLY372  TYR373 

> <Gold.Protein.RotatedAtoms>
    3.6885   -8.7388    3.8175 H   0  0  0  0  0  0  0  0  0  0  0  0  # atno 1303 bound_to 1298
    1.1256   -9.2851    8.3558 H   0  0  0  0  0  0  0  0  0  0  0  0  # atno 2461 bound_to 2456
   -3.6888   -4.9384    8.2796 H   0  0  0  0  0  0  0  0  0  0  0  0  # atno 2472 bound_to 2467
    2.6264   -7.7836    4.4844 H   0  0  0  0  0  0  0  0  0  0  0  0  # atno 2515 bound_to 2510
   -3.3375  -16.5335   13.8468 H   0  0  0  0  0  0  0  0  0  0  0  0  # atno 3721 bound_to 3712
   -3.9112  -23.0691   11.0921 H   0  0  0  0  0  0  0  0  0  0  0  0  # atno 3767 bound_to 3762
    2.3426  -19.6220    8.4092 H   0  0  0  0  0  0  0  0  0  0  0  0  # atno 3841 bound_to 3832
    4.9110   -9.1411    4.8225 LP  0  0  0  0  0  0  0  0  0  0  0  0  # atno 4297 bound_to 1298
    3.7629  -10.2416    4.4518 LP  0  0  0  0  0  0  0  0  0  0  0  0  # atno 4298 bound_to 1298
    2.0919   -8.2004    7.6094 LP  0  0  0  0  0  0  0  0  0  0  0  0  # atno 4299 bound_to 2456
    0.5203   -8.3229    7.1832 LP  0  0  0  0  0  0  0  0  0  0  0  0  # atno 4300 bound_to 2456
    2.6416   -9.2519    5.1983 LP  0  0  0  0  0  0  0  0  0  0  0  0  # atno 4301 bound_to 2510
    2.0286   -7.9638    5.9930 LP  0  0  0  0  0  0  0  0  0  0  0  0  # atno 4302 bound_to 2510
   -2.8692  -17.8893   13.1255 LP  0  0  0  0  0  0  0  0  0  0  0  0  # atno 4306 bound_to 3712
   -2.8052  -17.7487   14.7512 LP  0  0  0  0  0  0  0  0  0  0  0  0  # atno 4307 bound_to 3712
    3.0030  -20.9939    8.9168 LP  0  0  0  0  0  0  0  0  0  0  0  0  # atno 4314 bound_to 3832
    1.5203  -20.5449    9.4330 LP  0  0  0  0  0  0  0  0  0  0  0  0  # atno 4315 bound_to 3832
   -5.1819  -22.8833   10.0834 LP  0  0  0  0  0  0  0  0  0  0  0  0  # atno 4318 bound_to 3762
   -5.0340  -21.9228   11.3957 LP  0  0  0  0  0  0  0  0  0  0  0  0  # atno 4319 bound_to 3762
   -4.7415   -5.4618    9.4129 LP  0  0  0  0  0  0  0  0  0  0  0  0  # atno 4320 bound_to 2467
   -5.2865   -4.9933    7.9466 LP  0  0  0  0  0  0  0  0  0  0  0  0  # atno 4321 bound_to 2467

> <Gold.Score>
     Score     S(PLP)   S(hbond)     S(cho)   S(metal)  DE(clash)   DE(tors)     intcor
     47.49     -44.20       2.00       0.00       0.00       0.00       1.36       0.01

> <Gold.PLP.Fitness>
47.4878

> <Gold.PLP.PLP>
-44.1959

> <Gold.PLP.part.hbond>
-0.8858

> <Gold.PLP.part.metal>
0.0000

> <Gold.PLP.part.buried>
-3.6437

> <Gold.PLP.part.nonpolar>
-40.0165

> <Gold.PLP.part.repulsive>
0.0861

> <Gold.PLP.ligand.clash>
0.0000

> <Gold.PLP.ligand.torsion>
1.3572

> <Gold.PLP.Chemscore.Hbond>
2.0000

> <Gold.PLP.Chemscore.CHOScore>
0.0000

> <Gold.PLP.Chemscore.Metal>
0.0000

> <Gold.Chemscore.Hbonds>
donor molecule, donor type, donor heavy atom, donor atom, acceptor molecule, acceptor atom, score
      L1  H    16    29       P1  1227  2.00

> <Gold.PLP.Chemscore.Internal.Correction>
0.0062

