#       Name:                EN300-366294_i001
#       Creating user name   fsindt
#       Creation time:       Mon Feb 27 23:38:48 2023


#       File generated by GOLD software.
#

@<TRIPOS>MOLECULE
EN300-366294_i001|amine_7|mol2|2142|dock3
    30    31     1
SMALL
USER_CHARGES


@<TRIPOS>ATOM
      1 Cl1         -0.4936 -11.8596   8.3476 Cl             1 <1>                0.0000
      2 C2           0.0091 -13.3043   9.1685 C.2            1 <1>                0.0000
      3 C3          -0.0999 -13.5517  10.5400 C.2            1 <1>                0.0000
      4 C4           0.4147 -14.8112  10.7679 C.2            1 <1>                0.0000
      5 N5           0.8281 -15.3171   9.5545 N.pl3          1 <1>                0.0000
      6 C6           0.5723 -14.3961   8.5917 C.2            1 <1>                0.0000
      7 Cl7          0.9178 -14.5802   6.9005 Cl             1 <1>                0.0000
      8 C8           0.5058 -15.4880  12.0646 C.2            1 <1>                0.0000
      9 O9          -0.0894 -15.0409  13.0275 O.2            1 <1>                0.0000
     10 N10          1.2485 -16.6055  12.1907 N.am           1 <1>                0.0000
     11 C11          1.3395 -17.2821  13.4869 C.3            1 <1>                0.0000
     12 C12          0.6386 -18.6396  13.4040 C.3            1 <1>                0.0000
     13 C13          1.4059 -19.5846  12.4545 C.3            1 <1>                0.0000
     14 C14          0.3130 -20.3832  11.7146 C.3            1 <1>                0.0000
     15 C15         -1.0226 -19.8535  12.2792 C.3            1 <1>                0.0000
     16 N16         -0.7029 -18.4929  12.7827 N.4            1 <1>                1.0000
     17 H17         -0.5098 -12.8824  11.2820 H              1 <1>                0.0000
     18 H18          2.3878 -17.4297  13.7469 H              1 <1>                0.0000
     19 H19          0.8584 -16.6707  14.2504 H              1 <1>                0.0000
     20 H20          0.5536 -19.0838  14.3957 H              1 <1>                0.0000
     21 H21          1.9994 -19.0082  11.7450 H              1 <1>                0.0000
     22 H22          2.0454 -20.2576  13.0257 H              1 <1>                0.0000
     23 H23          0.3702 -20.1989  10.6418 H              1 <1>                0.0000
     24 H24          0.4161 -21.4482  11.9225 H              1 <1>                0.0000
     25 H25         -1.7741 -19.8004  11.4914 H              1 <1>                0.0000
     26 H26         -1.3694 -20.4887  13.0944 H              1 <1>                0.0000
     27 H27          1.2319 -16.1875   9.4121 H              1 <1>                0.0000
     28 H28          1.7229 -16.9619  11.4233 H              1 <1>                0.0000
     29 H29         -1.3809 -18.2031  13.4713 H              1 <1>                0.0000
     30 H30         -0.6682 -17.8335  12.0198 H              1 <1>                0.0000
@<TRIPOS>BOND
    1    1    2 1     
    2    2    3 1     
    3    2    6 2     
    4    3    4 2     
    5    3   17 1     
    6    4    5 1     
    7    4    8 1     
    8    5    6 1     
    9    5   27 1     
   10    6    7 1     
   11    8    9 2     
   12    8   10 am    
   13   10   11 1     
   14   10   28 1     
   15   11   12 1     
   16   11   18 1     
   17   11   19 1     
   18   12   13 1     
   19   12   16 1     
   20   12   20 1     
   21   13   14 1     
   22   13   21 1     
   23   13   22 1     
   24   14   15 1     
   25   14   23 1     
   26   14   24 1     
   27   15   16 1     
   28   15   25 1     
   29   15   26 1     
   30   16   29 1     
   31   16   30 1     
@<TRIPOS>SUBSTRUCTURE
      1 ****           1
@<TRIPOS>SET
DONOR_HYDROGENS      STATIC     ATOMS    <user>   **** ""
4 27 28 29 30
ATOM$RED        STATIC     ATOMS    COLORGROUP SYSTEM
4 27 28 29 30
@<TRIPOS>COMMENT
> <Gold.Version>
2022.2.0

> <Gold.Id.Protein>
3pbl|protein|mol2

> <Gold.Protein.RotatedTorsions>
[ 1303 1298 1297 1294 ] final -174.36 input  179.99 | X-H torsion
[ 2461 2456 2455 2452 ] final  147.15 input   30.03 | X-H torsion
[ 2515 2510 2509 2506 ] final  155.38 input  -89.99 | X-H torsion
[ 3721 3712 3711 3710 ] final -143.64 input -179.91 | X-H torsion
[ 3841 3832 3831 3830 ] final  102.91 input -179.91 | X-H torsion
[ 3767 3762 3761 3758 ] final -120.12 input  -89.99 | X-H torsion
[ 2472 2467 2466 2463 ] final -167.37 input  -89.97 | X-H torsion

> <Gold.Protein.ActiveResidues>
 VAL82   VAL86   LEU89   PHE106  VAL107  ASP110  VAL111  MET112  CYS114  THR115 
 CYS181  SER182  ILE183  PHE188  VAL189  ILE190  SER192  SER193  SER196  TRP342 
 PHE345  PHE346  HIS349  VAL350  TYR365  THR369  GLY372  TYR373 

> <Gold.Protein.RotatedAtoms>
    4.8225   -8.8039    4.6308 H   0  0  0  0  0  0  0  0  0  0  0  0  # atno 1303 bound_to 1298
    1.9021   -8.9534    8.2955 H   0  0  0  0  0  0  0  0  0  0  0  0  # atno 2461 bound_to 2456
   -5.2123   -5.4276    9.1720 H   0  0  0  0  0  0  0  0  0  0  0  0  # atno 2472 bound_to 2467
    2.1717   -8.7234    6.0424 H   0  0  0  0  0  0  0  0  0  0  0  0  # atno 2515 bound_to 2510
   -3.3120  -16.5415   14.0831 H   0  0  0  0  0  0  0  0  0  0  0  0  # atno 3721 bound_to 3712
   -4.8469  -21.9690   11.5202 H   0  0  0  0  0  0  0  0  0  0  0  0  # atno 3767 bound_to 3762
    2.9663  -20.8564    9.1281 H   0  0  0  0  0  0  0  0  0  0  0  0  # atno 3841 bound_to 3832
    4.0857  -10.2602    4.6833 LP  0  0  0  0  0  0  0  0  0  0  0  0  # atno 4297 bound_to 1298
    3.4537   -9.0575    3.7774 LP  0  0  0  0  0  0  0  0  0  0  0  0  # atno 4298 bound_to 1298
    1.4707   -7.9169    7.1094 LP  0  0  0  0  0  0  0  0  0  0  0  0  # atno 4299 bound_to 2456
    0.3651   -8.9379    7.7434 LP  0  0  0  0  0  0  0  0  0  0  0  0  # atno 4300 bound_to 2456
    2.2956   -7.4119    5.0779 LP  0  0  0  0  0  0  0  0  0  0  0  0  # atno 4301 bound_to 2510
    2.8295   -8.8637    4.5546 LP  0  0  0  0  0  0  0  0  0  0  0  0  # atno 4302 bound_to 2510
   -2.9938  -17.6902   13.0075 LP  0  0  0  0  0  0  0  0  0  0  0  0  # atno 4306 bound_to 3712
   -2.7101  -17.9387   14.5964 LP  0  0  0  0  0  0  0  0  0  0  0  0  # atno 4307 bound_to 3712
    1.4445  -20.3949    9.3456 LP  0  0  0  0  0  0  0  0  0  0  0  0  # atno 4314 bound_to 3832
    2.3584  -19.7181    8.1737 LP  0  0  0  0  0  0  0  0  0  0  0  0  # atno 4315 bound_to 3832
   -3.9560  -23.1902   10.9025 LP  0  0  0  0  0  0  0  0  0  0  0  0  # atno 4318 bound_to 3762
   -5.3245  -22.7156   10.1486 LP  0  0  0  0  0  0  0  0  0  0  0  0  # atno 4319 bound_to 3762
   -4.8459   -4.8519    7.6885 LP  0  0  0  0  0  0  0  0  0  0  0  0  # atno 4320 bound_to 2467
   -3.6588   -5.1141    8.7787 LP  0  0  0  0  0  0  0  0  0  0  0  0  # atno 4321 bound_to 2467

> <Gold.Score>
     Score     S(PLP)   S(hbond)     S(cho)   S(metal)  DE(clash)   DE(tors)     intcor
     47.92     -39.95       2.75       0.00       0.00       0.00       0.14       0.01

> <Gold.PLP.Fitness>
47.9169

> <Gold.PLP.PLP>
-39.9485

> <Gold.PLP.part.hbond>
-2.8345

> <Gold.PLP.part.metal>
0.0000

> <Gold.PLP.part.buried>
-5.6062

> <Gold.PLP.part.nonpolar>
-31.4786

> <Gold.PLP.part.repulsive>
0.0754

> <Gold.PLP.ligand.clash>
0.0000

> <Gold.PLP.ligand.torsion>
0.1408

> <Gold.PLP.Chemscore.Hbond>
2.7473

> <Gold.PLP.Chemscore.CHOScore>
0.0000

> <Gold.PLP.Chemscore.Metal>
0.0000

> <Gold.Chemscore.Hbonds>
donor molecule, donor type, donor heavy atom, donor atom, acceptor molecule, acceptor atom, score
      L1  H     5    27       P1  1227  1.00
      L1  H    10    28       P1  1227  0.80
      L1  H    16    29       P1  3712  0.95

> <Gold.PLP.Chemscore.Internal.Correction>
0.0081

