#       Name:                EN300-366294_i001
#       Creating user name   fsindt
#       Creation time:       Mon Feb 27 23:38:49 2023


#       File generated by GOLD software.
#

@<TRIPOS>MOLECULE
EN300-366294_i001|amine_7|mol2|2142|dock5
    30    31     1
SMALL
USER_CHARGES


@<TRIPOS>ATOM
      1 Cl1         -1.6309 -12.0648  10.3572 Cl             1 <1>                0.0000
      2 C2          -0.5897 -13.4132  10.6906 C.2            1 <1>                0.0000
      3 C3          -0.3893 -14.0092  11.9391 C.2            1 <1>                0.0000
      4 C4           0.5089 -15.0405  11.7577 C.2            1 <1>                0.0000
      5 N5           0.8460 -15.0678  10.4217 N.pl3          1 <1>                0.0000
      6 C6           0.1697 -14.0795   9.7842 C.2            1 <1>                0.0000
      7 Cl7          0.2670 -13.7199   8.0887 Cl             1 <1>                0.0000
      8 C8           1.0131 -15.9426  12.7966 C.2            1 <1>                0.0000
      9 O9           0.7677 -15.7196  13.9677 O.2            1 <1>                0.0000
     10 N10          1.7485 -17.0192  12.4554 N.am           1 <1>                0.0000
     11 C11          2.2527 -17.9211  13.4940 C.3            1 <1>                0.0000
     12 C12          1.2279 -19.0281  13.7495 C.3            1 <1>                0.0000
     13 C13          1.6960 -19.9388  14.9050 C.3            1 <1>                0.0000
     14 C14          1.2653 -21.3617  14.4935 C.3            1 <1>                0.0000
     15 C15          0.5733 -21.1911  13.1241 C.3            1 <1>                0.0000
     16 N16          1.1373 -19.9317  12.5739 N.4            1 <1>                1.0000
     17 H17         -0.8507 -13.7169  12.8709 H              1 <1>                0.0000
     18 H18          3.1924 -18.3648  13.1652 H              1 <1>                0.0000
     19 H19          2.4180 -17.3597  14.4136 H              1 <1>                0.0000
     20 H20          0.2527 -18.5974  13.9762 H              1 <1>                0.0000
     21 H21          2.7794 -19.8874  15.0124 H              1 <1>                0.0000
     22 H22          1.2083 -19.6499  15.8360 H              1 <1>                0.0000
     23 H23          2.1374 -22.0088  14.3990 H              1 <1>                0.0000
     24 H24          0.5661 -21.7714  15.2225 H              1 <1>                0.0000
     25 H25          0.8103 -22.0310  12.4710 H              1 <1>                0.0000
     26 H26         -0.5055 -21.1005  13.2519 H              1 <1>                0.0000
     27 H27          1.4618 -15.6914  10.0060 H              1 <1>                0.0000
     28 H28          1.9442 -17.1970  11.5220 H              1 <1>                0.0000
     29 H29          0.5198 -19.5433  11.8770 H              1 <1>                0.0000
     30 H30          2.0533 -20.0962  12.1838 H              1 <1>                0.0000
@<TRIPOS>BOND
    1    1    2 1     
    2    2    3 1     
    3    2    6 2     
    4    3    4 2     
    5    3   17 1     
    6    4    5 1     
    7    4    8 1     
    8    5    6 1     
    9    5   27 1     
   10    6    7 1     
   11    8    9 2     
   12    8   10 am    
   13   10   11 1     
   14   10   28 1     
   15   11   12 1     
   16   11   18 1     
   17   11   19 1     
   18   12   13 1     
   19   12   16 1     
   20   12   20 1     
   21   13   14 1     
   22   13   21 1     
   23   13   22 1     
   24   14   15 1     
   25   14   23 1     
   26   14   24 1     
   27   15   16 1     
   28   15   25 1     
   29   15   26 1     
   30   16   29 1     
   31   16   30 1     
@<TRIPOS>SUBSTRUCTURE
      1 ****           1
@<TRIPOS>SET
DONOR_HYDROGENS      STATIC     ATOMS    <user>   **** ""
4 27 28 29 30
ATOM$RED        STATIC     ATOMS    COLORGROUP SYSTEM
4 27 28 29 30
@<TRIPOS>COMMENT
> <Gold.Version>
2022.2.0

> <Gold.Id.Protein>
3pbl|protein|mol2

> <Gold.Protein.RotatedTorsions>
[ 1303 1298 1297 1294 ] final -141.73 input  179.99 | X-H torsion
[ 2461 2456 2455 2452 ] final  126.47 input   30.03 | X-H torsion
[ 2515 2510 2509 2506 ] final -118.58 input  -89.99 | X-H torsion
[ 3721 3712 3711 3710 ] final  -37.14 input -179.91 | X-H torsion
[ 3841 3832 3831 3830 ] final  -23.10 input -179.91 | X-H torsion
[ 3767 3762 3761 3758 ] final    2.99 input  -89.99 | X-H torsion
[ 2472 2467 2466 2463 ] final  -80.70 input  -89.97 | X-H torsion

> <Gold.Protein.ActiveResidues>
 VAL82   VAL86   LEU89   PHE106  VAL107  ASP110  VAL111  MET112  CYS114  THR115 
 CYS181  SER182  ILE183  PHE188  VAL189  ILE190  SER192  SER193  SER196  TRP342 
 PHE345  PHE346  HIS349  VAL350  TYR365  THR369  GLY372  TYR373 

> <Gold.Protein.RotatedAtoms>
    4.5149   -8.5195    4.3067 H   0  0  0  0  0  0  0  0  0  0  0  0  # atno 1303 bound_to 1298
    2.0853   -8.7226    8.1289 H   0  0  0  0  0  0  0  0  0  0  0  0  # atno 2461 bound_to 2456
   -3.9252   -5.3000    9.2110 H   0  0  0  0  0  0  0  0  0  0  0  0  # atno 2472 bound_to 2467
    2.7217   -9.1959    4.9803 H   0  0  0  0  0  0  0  0  0  0  0  0  # atno 2515 bound_to 2510
   -2.6444  -17.6188   14.6491 H   0  0  0  0  0  0  0  0  0  0  0  0  # atno 3721 bound_to 3712
   -5.2954  -22.7534   10.1297 H   0  0  0  0  0  0  0  0  0  0  0  0  # atno 3767 bound_to 3762
    1.5915  -20.2130    9.4034 H   0  0  0  0  0  0  0  0  0  0  0  0  # atno 3841 bound_to 3832
    4.5176  -10.0414    4.8985 LP  0  0  0  0  0  0  0  0  0  0  0  0  # atno 4297 bound_to 1298
    3.3295   -9.5608    3.8864 LP  0  0  0  0  0  0  0  0  0  0  0  0  # atno 4298 bound_to 1298
    1.1429   -7.9579    7.0360 LP  0  0  0  0  0  0  0  0  0  0  0  0  # atno 4299 bound_to 2456
    0.5098   -9.1276    7.9834 LP  0  0  0  0  0  0  0  0  0  0  0  0  # atno 4300 bound_to 2456
    2.0438   -8.1886    6.0719 LP  0  0  0  0  0  0  0  0  0  0  0  0  # atno 4301 bound_to 2510
    2.5311   -7.6142    4.6231 LP  0  0  0  0  0  0  0  0  0  0  0  0  # atno 4302 bound_to 2510
   -3.5655  -16.5584   13.8712 LP  0  0  0  0  0  0  0  0  0  0  0  0  # atno 4306 bound_to 3712
   -2.9092  -17.8267   13.0792 LP  0  0  0  0  0  0  0  0  0  0  0  0  # atno 4307 bound_to 3712
    2.4918  -19.7806    8.1470 LP  0  0  0  0  0  0  0  0  0  0  0  0  # atno 4314 bound_to 3832
    2.8991  -21.0757    9.0544 LP  0  0  0  0  0  0  0  0  0  0  0  0  # atno 4315 bound_to 3832
   -4.8901  -21.9557   11.4958 LP  0  0  0  0  0  0  0  0  0  0  0  0  # atno 4318 bound_to 3762
   -3.9421  -23.1661   10.9454 LP  0  0  0  0  0  0  0  0  0  0  0  0  # atno 4319 bound_to 3762
   -5.4837   -5.2950    8.7235 LP  0  0  0  0  0  0  0  0  0  0  0  0  # atno 4320 bound_to 2467
   -4.3079   -4.7985    7.7048 LP  0  0  0  0  0  0  0  0  0  0  0  0  # atno 4321 bound_to 2467

> <Gold.Score>
     Score     S(PLP)   S(hbond)     S(cho)   S(metal)  DE(clash)   DE(tors)     intcor
     47.48     -41.28       2.23       0.00       0.00       0.00       0.24       0.01

> <Gold.PLP.Fitness>
47.4801

> <Gold.PLP.PLP>
-41.2812

> <Gold.PLP.part.hbond>
-2.3506

> <Gold.PLP.part.metal>
0.0000

> <Gold.PLP.part.buried>
-5.3654

> <Gold.PLP.part.nonpolar>
-34.4615

> <Gold.PLP.part.repulsive>
0.0144

> <Gold.PLP.ligand.clash>
0.0000

> <Gold.PLP.ligand.torsion>
0.2439

> <Gold.PLP.Chemscore.Hbond>
2.2263

> <Gold.PLP.Chemscore.CHOScore>
0.0000

> <Gold.PLP.Chemscore.Metal>
0.0000

> <Gold.Chemscore.Hbonds>
donor molecule, donor type, donor heavy atom, donor atom, acceptor molecule, acceptor atom, score
      L1  H     5    27       P1  1227  0.55
      L1  H    10    28       P1  1227  0.93
      P1  H  2305  2313       L1     9  0.75

> <Gold.PLP.Chemscore.Internal.Correction>
0.0081

