#       Name:                EN300-366294_i001
#       Creating user name   fsindt
#       Creation time:       Mon Feb 27 23:38:47 2023


#       File generated by GOLD software.
#

@<TRIPOS>MOLECULE
EN300-366294_i001|amine_7|mol2|2142|dock2
    30    31     1
SMALL
USER_CHARGES


@<TRIPOS>ATOM
      1 Cl1         -0.0565 -19.6437  15.4131 Cl             1 <1>                0.0000
      2 C2           0.3270 -18.7037  14.0050 C.2            1 <1>                0.0000
      3 C3           0.0949 -17.3350  13.8410 C.2            1 <1>                0.0000
      4 C4           0.5479 -16.9938  12.5834 C.2            1 <1>                0.0000
      5 N5           1.0457 -18.1370  11.9966 N.pl3          1 <1>                0.0000
      6 C6           0.9108 -19.1661  12.8703 C.2            1 <1>                0.0000
      7 Cl7          1.3963 -20.8074  12.5807 Cl             1 <1>                0.0000
      8 C8           0.5067 -15.6586  11.9808 C.2            1 <1>                0.0000
      9 O9          -0.0879 -14.7563  12.5408 O.2            1 <1>                0.0000
     10 N10          1.1274 -15.4298  10.8066 N.am           1 <1>                0.0000
     11 C11          1.0863 -14.0950  10.2042 C.3            1 <1>                0.0000
     12 C12          1.3511 -14.2054   8.7013 C.3            1 <1>                0.0000
     13 C13          0.4159 -13.2584   7.9189 C.3            1 <1>                0.0000
     14 C14          0.0421 -14.0325   6.6381 C.3            1 <1>                0.0000
     15 C15          0.7828 -15.3820   6.7542 C.3            1 <1>                0.0000
     16 N16          1.0025 -15.5641   8.2122 N.4            1 <1>                1.0000
     17 H17         -0.3551 -16.6696  14.5631 H              1 <1>                0.0000
     18 H18          0.1039 -13.6523  10.3685 H              1 <1>                0.0000
     19 H19          1.8495 -13.4660  10.6623 H              1 <1>                0.0000
     20 H20          2.3939 -13.9764   8.4820 H              1 <1>                0.0000
     21 H21         -0.4776 -13.0404   8.5038 H              1 <1>                0.0000
     22 H22          0.9376 -12.3358   7.6650 H              1 <1>                0.0000
     23 H23         -1.0350 -14.1944   6.5942 H              1 <1>                0.0000
     24 H24          0.3803 -13.4898   5.7553 H              1 <1>                0.0000
     25 H25          0.1663 -16.1894   6.3589 H              1 <1>                0.0000
     26 H26          1.7368 -15.3386   6.2286 H              1 <1>                0.0000
     27 H27          1.4310 -18.1956  11.1083 H              1 <1>                0.0000
     28 H28          1.6014 -16.1489  10.3602 H              1 <1>                0.0000
     29 H29          1.7643 -16.2047   8.3770 H              1 <1>                0.0000
     30 H30          0.1593 -15.8940   8.6575 H              1 <1>                0.0000
@<TRIPOS>BOND
    1    1    2 1     
    2    2    3 1     
    3    2    6 2     
    4    3    4 2     
    5    3   17 1     
    6    4    5 1     
    7    4    8 1     
    8    5    6 1     
    9    5   27 1     
   10    6    7 1     
   11    8    9 2     
   12    8   10 am    
   13   10   11 1     
   14   10   28 1     
   15   11   12 1     
   16   11   18 1     
   17   11   19 1     
   18   12   13 1     
   19   12   16 1     
   20   12   20 1     
   21   13   14 1     
   22   13   21 1     
   23   13   22 1     
   24   14   15 1     
   25   14   23 1     
   26   14   24 1     
   27   15   16 1     
   28   15   25 1     
   29   15   26 1     
   30   16   29 1     
   31   16   30 1     
@<TRIPOS>SUBSTRUCTURE
      1 ****           1
@<TRIPOS>SET
DONOR_HYDROGENS      STATIC     ATOMS    <user>   **** ""
4 27 28 29 30
ATOM$RED        STATIC     ATOMS    COLORGROUP SYSTEM
4 27 28 29 30
@<TRIPOS>COMMENT
> <Gold.Version>
2022.2.0

> <Gold.Id.Protein>
3pbl|protein|mol2

> <Gold.Protein.RotatedTorsions>
[ 1303 1298 1297 1294 ] final  118.84 input  179.99 | X-H torsion
[ 2461 2456 2455 2452 ] final -120.55 input   30.03 | X-H torsion
[ 2515 2510 2509 2506 ] final  108.00 input  -89.99 | X-H torsion
[ 3721 3712 3711 3710 ] final -136.87 input -179.91 | X-H torsion
[ 3841 3832 3831 3830 ] final  -56.71 input -179.91 | X-H torsion
[ 3767 3762 3761 3758 ] final -179.67 input  -89.99 | X-H torsion
[ 2472 2467 2466 2463 ] final -156.65 input  -89.97 | X-H torsion

> <Gold.Protein.ActiveResidues>
 VAL82   VAL86   LEU89   PHE106  VAL107  ASP110  VAL111  MET112  CYS114  THR115 
 CYS181  SER182  ILE183  PHE188  VAL189  ILE190  SER192  SER193  SER196  TRP342 
 PHE345  PHE346  HIS349  VAL350  TYR365  THR369  GLY372  TYR373 

> <Gold.Protein.RotatedAtoms>
    4.7325   -9.7872    4.9498 H   0  0  0  0  0  0  0  0  0  0  0  0  # atno 1303 bound_to 1298
    0.5817   -9.1778    8.0587 H   0  0  0  0  0  0  0  0  0  0  0  0  # atno 2461 bound_to 2456
   -5.0736   -5.4506    9.2782 H   0  0  0  0  0  0  0  0  0  0  0  0  # atno 2472 bound_to 2467
    2.0292   -7.9807    6.0007 H   0  0  0  0  0  0  0  0  0  0  0  0  # atno 2515 bound_to 2510
   -3.2914  -16.5621   14.1811 H   0  0  0  0  0  0  0  0  0  0  0  0  # atno 3721 bound_to 3712
   -4.0976  -22.5286   11.5683 H   0  0  0  0  0  0  0  0  0  0  0  0  # atno 3767 bound_to 3762
    1.5983  -19.8422    9.0672 H   0  0  0  0  0  0  0  0  0  0  0  0  # atno 3841 bound_to 3832
    3.3804   -9.8575    4.0369 LP  0  0  0  0  0  0  0  0  0  0  0  0  # atno 4297 bound_to 1298
    4.2491   -8.4764    4.1046 LP  0  0  0  0  0  0  0  0  0  0  0  0  # atno 4298 bound_to 1298
    2.1235   -8.6391    8.0587 LP  0  0  0  0  0  0  0  0  0  0  0  0  # atno 4299 bound_to 2456
    1.0324   -7.9914    7.0308 LP  0  0  0  0  0  0  0  0  0  0  0  0  # atno 4300 bound_to 2456
    2.6193   -7.7689    4.4932 LP  0  0  0  0  0  0  0  0  0  0  0  0  # atno 4301 bound_to 2510
    2.6484   -9.2497    5.1810 LP  0  0  0  0  0  0  0  0  0  0  0  0  # atno 4302 bound_to 2510
   -3.0500  -17.5969   12.9774 LP  0  0  0  0  0  0  0  0  0  0  0  0  # atno 4306 bound_to 3712
   -2.6777  -18.0081   14.5133 LP  0  0  0  0  0  0  0  0  0  0  0  0  # atno 4307 bound_to 3712
    2.9165  -20.1319    8.1986 LP  0  0  0  0  0  0  0  0  0  0  0  0  # atno 4314 bound_to 3832
    2.4665  -21.1527    9.3911 LP  0  0  0  0  0  0  0  0  0  0  0  0  # atno 4315 bound_to 3832
   -4.5649  -23.2829   10.1974 LP  0  0  0  0  0  0  0  0  0  0  0  0  # atno 4318 bound_to 3762
   -5.4647  -22.0635   10.8057 LP  0  0  0  0  0  0  0  0  0  0  0  0  # atno 4319 bound_to 3762
   -5.0080   -4.8903    7.7458 LP  0  0  0  0  0  0  0  0  0  0  0  0  # atno 4320 bound_to 2467
   -3.6354   -5.0527    8.6153 LP  0  0  0  0  0  0  0  0  0  0  0  0  # atno 4321 bound_to 2467

> <Gold.Score>
     Score     S(PLP)   S(hbond)     S(cho)   S(metal)  DE(clash)   DE(tors)     intcor
     51.70     -41.13       4.00       0.00       0.00       0.00       0.72       0.01

> <Gold.PLP.Fitness>
51.6998

> <Gold.PLP.PLP>
-41.1328

> <Gold.PLP.part.hbond>
-3.0000

> <Gold.PLP.part.metal>
0.0000

> <Gold.PLP.part.buried>
-5.9529

> <Gold.PLP.part.nonpolar>
-33.5088

> <Gold.PLP.part.repulsive>
0.0785

> <Gold.PLP.ligand.clash>
0.0000

> <Gold.PLP.ligand.torsion>
0.7206

> <Gold.PLP.Chemscore.Hbond>
4.0000

> <Gold.PLP.Chemscore.CHOScore>
0.0000

> <Gold.PLP.Chemscore.Metal>
0.0000

> <Gold.Chemscore.Hbonds>
donor molecule, donor type, donor heavy atom, donor atom, acceptor molecule, acceptor atom, score
      L1  H     5    27       P1  1227  1.00
      L1  H    10    28       P1  1227  1.00
      L1  H    16    29       P1  1227  2.00

> <Gold.PLP.Chemscore.Internal.Correction>
0.0081

