#       Name:                EN300-366294_i001
#       Creating user name   fsindt
#       Creation time:       Mon Feb 27 23:39:00 2023


#       File generated by GOLD software.
#

@<TRIPOS>MOLECULE
EN300-366294_i001|amine_7|mol2|2142|dock20
    30    31     1
SMALL
USER_CHARGES


@<TRIPOS>ATOM
      1 Cl1         -0.2865 -16.9174  14.9865 Cl             1 <1>                0.0000
      2 C2           0.2217 -16.2944  13.4479 C.2            1 <1>                0.0000
      3 C3          -0.2289 -15.1148  12.8482 C.2            1 <1>                0.0000
      4 C4           0.4276 -14.9963  11.6407 C.2            1 <1>                0.0000
      5 N5           1.2614 -16.0860  11.5122 N.pl3          1 <1>                0.0000
      6 C6           1.1314 -16.8632  12.6166 C.2            1 <1>                0.0000
      7 Cl7          1.9818 -18.3471  12.9133 Cl             1 <1>                0.0000
      8 C8           0.2672 -13.9096  10.6707 C.2            1 <1>                0.0000
      9 O9           0.8606 -13.9492   9.6088 O.2            1 <1>                0.0000
     10 N10         -0.5376 -12.8664  10.9545 N.am           1 <1>                0.0000
     11 C11         -0.6979 -11.7800   9.9848 C.3            1 <1>                0.0000
     12 C12         -1.9093 -10.9281  10.3691 C.3            1 <1>                0.0000
     13 C13         -3.1770 -11.8046  10.4598 C.3            1 <1>                0.0000
     14 C14         -4.3135 -10.9246   9.9001 C.3            1 <1>                0.0000
     15 C15         -3.6371  -9.5905   9.5182 C.3            1 <1>                0.0000
     16 N16         -2.2108  -9.9434   9.2984 N.4            1 <1>                1.0000
     17 H17         -0.9551 -14.4258  13.2538 H              1 <1>                0.0000
     18 H18          0.1977 -11.1586   9.9838 H              1 <1>                0.0000
     19 H19         -0.8499 -12.2000   8.9905 H              1 <1>                0.0000
     20 H20         -1.7303 -10.4194  11.3163 H              1 <1>                0.0000
     21 H21         -3.0602 -12.7029   9.8537 H              1 <1>                0.0000
     22 H22         -3.3799 -12.0705  11.4972 H              1 <1>                0.0000
     23 H23         -4.7548 -11.3910   9.0193 H              1 <1>                0.0000
     24 H24         -5.0744 -10.7585  10.6627 H              1 <1>                0.0000
     25 H25         -4.0750  -9.1902   8.6038 H              1 <1>                0.0000
     26 H26         -3.7296  -8.8708  10.3318 H              1 <1>                0.0000
     27 H27          1.8459 -16.2658  10.7593 H              1 <1>                0.0000
     28 H28         -1.0105 -12.8348  11.8008 H              1 <1>                0.0000
     29 H29         -1.6263  -9.1268   9.3952 H              1 <1>                0.0000
     30 H30         -2.0872 -10.3621   8.3888 H              1 <1>                0.0000
@<TRIPOS>BOND
    1    1    2 1     
    2    2    3 1     
    3    2    6 2     
    4    3    4 2     
    5    3   17 1     
    6    4    5 1     
    7    4    8 1     
    8    5    6 1     
    9    5   27 1     
   10    6    7 1     
   11    8    9 2     
   12    8   10 am    
   13   10   11 1     
   14   10   28 1     
   15   11   12 1     
   16   11   18 1     
   17   11   19 1     
   18   12   13 1     
   19   12   16 1     
   20   12   20 1     
   21   13   14 1     
   22   13   21 1     
   23   13   22 1     
   24   14   15 1     
   25   14   23 1     
   26   14   24 1     
   27   15   16 1     
   28   15   25 1     
   29   15   26 1     
   30   16   29 1     
   31   16   30 1     
@<TRIPOS>SUBSTRUCTURE
      1 ****           1
@<TRIPOS>SET
DONOR_HYDROGENS      STATIC     ATOMS    <user>   **** ""
4 27 28 29 30
ATOM$RED        STATIC     ATOMS    COLORGROUP SYSTEM
4 27 28 29 30
@<TRIPOS>COMMENT
> <Gold.Version>
2022.2.0

> <Gold.Id.Protein>
3pbl|protein|mol2

> <Gold.Protein.RotatedTorsions>
[ 1303 1298 1297 1294 ] final   23.99 input  179.99 | X-H torsion
[ 2461 2456 2455 2452 ] final  -18.67 input   30.03 | X-H torsion
[ 2515 2510 2509 2506 ] final  -99.14 input  -89.99 | X-H torsion
[ 3721 3712 3711 3710 ] final   18.36 input -179.91 | X-H torsion
[ 3841 3832 3831 3830 ] final -158.63 input -179.91 | X-H torsion
[ 3767 3762 3761 3758 ] final   -5.92 input  -89.99 | X-H torsion
[ 2472 2467 2466 2463 ] final   38.43 input  -89.97 | X-H torsion

> <Gold.Protein.ActiveResidues>
 VAL82   VAL86   LEU89   PHE106  VAL107  ASP110  VAL111  MET112  CYS114  THR115 
 CYS181  SER182  ILE183  PHE188  VAL189  ILE190  SER192  SER193  SER196  TRP342 
 PHE345  PHE346  HIS349  VAL350  TYR365  THR369  GLY372  TYR373 

> <Gold.Protein.RotatedAtoms>
    3.5692  -10.1331    4.2757 H   0  0  0  0  0  0  0  0  0  0  0  0  # atno 1303 bound_to 1298
    0.7661   -8.1182    7.0646 H   0  0  0  0  0  0  0  0  0  0  0  0  # atno 2461 bound_to 2456
   -4.2942   -4.7993    7.7089 H   0  0  0  0  0  0  0  0  0  0  0  0  # atno 2472 bound_to 2467
    2.7988   -9.0364    4.7160 H   0  0  0  0  0  0  0  0  0  0  0  0  # atno 2515 bound_to 2510
   -2.4702  -18.0272   13.9756 H   0  0  0  0  0  0  0  0  0  0  0  0  # atno 3721 bound_to 3712
   -5.3731  -22.6435   10.1877 H   0  0  0  0  0  0  0  0  0  0  0  0  # atno 3767 bound_to 3762
    2.7354  -19.8270    8.3495 H   0  0  0  0  0  0  0  0  0  0  0  0  # atno 3841 bound_to 3832
    3.9052   -8.5787    3.9053 LP  0  0  0  0  0  0  0  0  0  0  0  0  # atno 4297 bound_to 1298
    4.8880   -9.4093    4.9106 LP  0  0  0  0  0  0  0  0  0  0  0  0  # atno 4298 bound_to 1298
    0.8107   -9.2655    8.2261 LP  0  0  0  0  0  0  0  0  0  0  0  0  # atno 4299 bound_to 2456
    2.1609   -8.4243    7.8572 LP  0  0  0  0  0  0  0  0  0  0  0  0  # atno 4300 bound_to 2456
    2.1025   -8.5008    6.0923 LP  0  0  0  0  0  0  0  0  0  0  0  0  # atno 4301 bound_to 2510
    2.3952   -7.4616    4.8672 LP  0  0  0  0  0  0  0  0  0  0  0  0  # atno 4302 bound_to 2510
   -3.3217  -16.8592   14.6745 LP  0  0  0  0  0  0  0  0  0  0  0  0  # atno 4306 bound_to 3712
   -3.3540  -17.0544   13.0535 LP  0  0  0  0  0  0  0  0  0  0  0  0  # atno 4307 bound_to 3712
    2.6795  -21.1498    9.2567 LP  0  0  0  0  0  0  0  0  0  0  0  0  # atno 4314 bound_to 3832
    1.3900  -20.1524    9.1621 LP  0  0  0  0  0  0  0  0  0  0  0  0  # atno 4315 bound_to 3832
   -4.7668  -22.0006   11.5610 LP  0  0  0  0  0  0  0  0  0  0  0  0  # atno 4318 bound_to 3762
   -3.9877  -23.2309   10.8221 LP  0  0  0  0  0  0  0  0  0  0  0  0  # atno 4319 bound_to 3762
   -3.9357   -5.3036    9.2200 LP  0  0  0  0  0  0  0  0  0  0  0  0  # atno 4320 bound_to 2467
   -5.4870   -5.2905    8.7101 LP  0  0  0  0  0  0  0  0  0  0  0  0  # atno 4321 bound_to 2467

> <Gold.Score>
     Score     S(PLP)   S(hbond)     S(cho)   S(metal)  DE(clash)   DE(tors)     intcor
     49.60     -46.84       0.99       0.00       0.00       0.00       0.11       0.01

> <Gold.PLP.Fitness>
49.5980

> <Gold.PLP.PLP>
-46.8448

> <Gold.PLP.part.hbond>
-1.0000

> <Gold.PLP.part.metal>
0.0000

> <Gold.PLP.part.buried>
-5.9311

> <Gold.PLP.part.nonpolar>
-41.3709

> <Gold.PLP.part.repulsive>
0.1666

> <Gold.PLP.ligand.clash>
0.0000

> <Gold.PLP.ligand.torsion>
0.1145

> <Gold.PLP.Chemscore.Hbond>
0.9920

> <Gold.PLP.Chemscore.CHOScore>
0.0000

> <Gold.PLP.Chemscore.Metal>
0.0000

> <Gold.Chemscore.Hbonds>
donor molecule, donor type, donor heavy atom, donor atom, acceptor molecule, acceptor atom, score
      L1  H     5    27       P1  1227  0.99

> <Gold.PLP.Chemscore.Internal.Correction>
0.0062

