#       Name:                EN300-366294_i001
#       Creating user name   fsindt
#       Creation time:       Mon Feb 27 23:38:52 2023


#       File generated by GOLD software.
#

@<TRIPOS>MOLECULE
EN300-366294_i001|amine_7|mol2|2142|dock9
    30    31     1
SMALL
USER_CHARGES


@<TRIPOS>ATOM
      1 Cl1         -0.8860 -11.7501   8.7887 Cl             1 <1>                0.0000
      2 C2          -0.1314 -13.1666   9.4504 C.2            1 <1>                0.0000
      3 C3          -0.2526 -13.6254  10.7654 C.2            1 <1>                0.0000
      4 C4           0.5036 -14.7749  10.8660 C.2            1 <1>                0.0000
      5 N5           1.0725 -15.0074   9.6325 N.pl3          1 <1>                0.0000
      6 C6           0.6759 -14.0283   8.7813 C.2            1 <1>                0.0000
      7 Cl7          1.1341 -13.8940   7.1123 Cl             1 <1>                0.0000
      8 C8           0.6717 -15.5986  12.0663 C.2            1 <1>                0.0000
      9 O9           0.1011 -15.2948  13.0976 O.2            1 <1>                0.0000
     10 N10          1.4580 -16.6925  12.0282 N.am           1 <1>                0.0000
     11 C11          1.6261 -17.5160  13.2281 C.3            1 <1>                0.0000
     12 C12          0.9231 -18.8600  13.0270 C.3            1 <1>                0.0000
     13 C13          1.2877 -19.8343  14.1677 C.3            1 <1>                0.0000
     14 C14          1.4041 -21.2163  13.4924 C.3            1 <1>                0.0000
     15 C15          1.1000 -20.9608  12.0006 C.3            1 <1>                0.0000
     16 N16          1.4186 -19.5245  11.7942 N.4            1 <1>                1.0000
     17 H17         -0.8295 -13.1660  11.5544 H              1 <1>                0.0000
     18 H18          2.6880 -17.6846  13.4073 H              1 <1>                0.0000
     19 H19          1.1900 -17.0025  14.0851 H              1 <1>                0.0000
     20 H20         -0.1567 -18.7197  12.9775 H              1 <1>                0.0000
     21 H21          2.2394 -19.5514  14.6174 H              1 <1>                0.0000
     22 H22          0.5005 -19.8463  14.9214 H              1 <1>                0.0000
     23 H23          2.4129 -21.6119  13.6108 H              1 <1>                0.0000
     24 H24          0.6739 -21.9068  13.9146 H              1 <1>                0.0000
     25 H25          1.7340 -21.5851  11.3709 H              1 <1>                0.0000
     26 H26          0.0477 -21.1509  11.7891 H              1 <1>                0.0000
     27 H27          1.6565 -15.7490   9.4093 H              1 <1>                0.0000
     28 H28          1.9127 -16.9347  11.2062 H              1 <1>                0.0000
     29 H29          0.9356 -19.1688  10.9831 H              1 <1>                0.0000
     30 H30          2.4147 -19.3942  11.6991 H              1 <1>                0.0000
@<TRIPOS>BOND
    1    1    2 1     
    2    2    3 1     
    3    2    6 2     
    4    3    4 2     
    5    3   17 1     
    6    4    5 1     
    7    4    8 1     
    8    5    6 1     
    9    5   27 1     
   10    6    7 1     
   11    8    9 2     
   12    8   10 am    
   13   10   11 1     
   14   10   28 1     
   15   11   12 1     
   16   11   18 1     
   17   11   19 1     
   18   12   13 1     
   19   12   16 1     
   20   12   20 1     
   21   13   14 1     
   22   13   21 1     
   23   13   22 1     
   24   14   15 1     
   25   14   23 1     
   26   14   24 1     
   27   15   16 1     
   28   15   25 1     
   29   15   26 1     
   30   16   29 1     
   31   16   30 1     
@<TRIPOS>SUBSTRUCTURE
      1 ****           1
@<TRIPOS>SET
DONOR_HYDROGENS      STATIC     ATOMS    <user>   **** ""
4 27 28 29 30
ATOM$RED        STATIC     ATOMS    COLORGROUP SYSTEM
4 27 28 29 30
@<TRIPOS>COMMENT
> <Gold.Version>
2022.2.0

> <Gold.Id.Protein>
3pbl|protein|mol2

> <Gold.Protein.RotatedTorsions>
[ 1303 1298 1297 1294 ] final  -58.77 input  179.99 | X-H torsion
[ 2461 2456 2455 2452 ] final   84.81 input   30.03 | X-H torsion
[ 2515 2510 2509 2506 ] final  -55.96 input  -89.99 | X-H torsion
[ 3721 3712 3711 3710 ] final  -71.00 input -179.91 | X-H torsion
[ 3841 3832 3831 3830 ] final   98.98 input -179.91 | X-H torsion
[ 3767 3762 3761 3758 ] final  -23.45 input  -89.99 | X-H torsion
[ 2472 2467 2466 2463 ] final    6.19 input  -89.97 | X-H torsion

> <Gold.Protein.ActiveResidues>
 VAL82   VAL86   LEU89   PHE106  VAL107  ASP110  VAL111  MET112  CYS114  THR115 
 CYS181  SER182  ILE183  PHE188  VAL189  ILE190  SER192  SER193  SER196  TRP342 
 PHE345  PHE346  HIS349  VAL350  TYR365  THR369  GLY372  TYR373 

> <Gold.Protein.RotatedAtoms>
    3.4883   -8.9937    3.7773 H   0  0  0  0  0  0  0  0  0  0  0  0  # atno 1303 bound_to 1298
    2.1161   -8.2433    7.6608 H   0  0  0  0  0  0  0  0  0  0  0  0  # atno 2461 bound_to 2456
   -3.8594   -4.8545    7.9950 H   0  0  0  0  0  0  0  0  0  0  0  0  # atno 2472 bound_to 2467
    2.8152   -8.4355    4.3701 H   0  0  0  0  0  0  0  0  0  0  0  0  # atno 2515 bound_to 2510
   -2.8824  -17.1868   14.7552 H   0  0  0  0  0  0  0  0  0  0  0  0  # atno 3721 bound_to 3712
   -5.4778  -22.4287   10.3473 H   0  0  0  0  0  0  0  0  0  0  0  0  # atno 3767 bound_to 3762
    2.9316  -20.8796    9.1704 H   0  0  0  0  0  0  0  0  0  0  0  0  # atno 3841 bound_to 3832
    4.8489   -8.8590    4.6700 LP  0  0  0  0  0  0  0  0  0  0  0  0  # atno 4297 bound_to 1298
    4.0252  -10.2688    4.6446 LP  0  0  0  0  0  0  0  0  0  0  0  0  # atno 4298 bound_to 1298
    0.5644   -8.2764    7.1522 LP  0  0  0  0  0  0  0  0  0  0  0  0  # atno 4299 bound_to 2456
    1.0576   -9.2883    8.3352 LP  0  0  0  0  0  0  0  0  0  0  0  0  # atno 4300 bound_to 2456
    2.3512   -9.0777    5.7977 LP  0  0  0  0  0  0  0  0  0  0  0  0  # atno 4301 bound_to 2510
    2.1302   -7.4859    5.5079 LP  0  0  0  0  0  0  0  0  0  0  0  0  # atno 4302 bound_to 2510
   -3.5090  -16.7385   13.3465 LP  0  0  0  0  0  0  0  0  0  0  0  0  # atno 4306 bound_to 3712
   -2.6909  -18.1453   13.4814 LP  0  0  0  0  0  0  0  0  0  0  0  0  # atno 4307 bound_to 3712
    1.4255  -20.3427    9.3105 LP  0  0  0  0  0  0  0  0  0  0  0  0  # atno 4314 bound_to 3832
    2.4174  -19.7435    8.1599 LP  0  0  0  0  0  0  0  0  0  0  0  0  # atno 4315 bound_to 3832
   -4.5232  -22.1317   11.6386 LP  0  0  0  0  0  0  0  0  0  0  0  0  # atno 4318 bound_to 3762
   -4.1267  -23.3147   10.5850 LP  0  0  0  0  0  0  0  0  0  0  0  0  # atno 4319 bound_to 3762
   -4.4010   -5.4285    9.4245 LP  0  0  0  0  0  0  0  0  0  0  0  0  # atno 4320 bound_to 2467
   -5.4564   -5.1104    8.2196 LP  0  0  0  0  0  0  0  0  0  0  0  0  # atno 4321 bound_to 2467

> <Gold.Score>
     Score     S(PLP)   S(hbond)     S(cho)   S(metal)  DE(clash)   DE(tors)     intcor
     47.89     -42.04       2.00       0.00       0.00       0.00       0.08       0.01

> <Gold.PLP.Fitness>
47.8940

> <Gold.PLP.PLP>
-42.0380

> <Gold.PLP.part.hbond>
-2.5531

> <Gold.PLP.part.metal>
0.0000

> <Gold.PLP.part.buried>
-5.3999

> <Gold.PLP.part.nonpolar>
-34.4760

> <Gold.PLP.part.repulsive>
0.0735

> <Gold.PLP.ligand.clash>
0.0000

> <Gold.PLP.ligand.torsion>
0.0751

> <Gold.PLP.Chemscore.Hbond>
2.0000

> <Gold.PLP.Chemscore.CHOScore>
0.0000

> <Gold.PLP.Chemscore.Metal>
0.0000

> <Gold.Chemscore.Hbonds>
donor molecule, donor type, donor heavy atom, donor atom, acceptor molecule, acceptor atom, score
      L1  H     5    27       P1  1227  1.00
      L1  H    10    28       P1  1227  1.00

> <Gold.PLP.Chemscore.Internal.Correction>
0.0062

