#       Name:                EN300-366294_i001
#       Creating user name   fsindt
#       Creation time:       Mon Feb 27 23:38:47 2023


#       File generated by GOLD software.
#

@<TRIPOS>MOLECULE
EN300-366294_i001|amine_7|mol2|2142|dock1
    30    31     1
SMALL
USER_CHARGES


@<TRIPOS>ATOM
      1 Cl1         -0.9143 -11.7679   8.9841 Cl             1 <1>                0.0000
      2 C2          -0.1567 -13.2253   9.5459 C.2            1 <1>                0.0000
      3 C3          -0.3271 -13.8089  10.8047 C.2            1 <1>                0.0000
      4 C4           0.4515 -14.9473  10.8336 C.2            1 <1>                0.0000
      5 N5           1.0823 -15.0506   9.6127 N.pl3          1 <1>                0.0000
      6 C6           0.7016 -14.0034   8.8388 C.2            1 <1>                0.0000
      7 Cl7          1.2330 -13.7025   7.2138 Cl             1 <1>                0.0000
      8 C8           0.5841 -15.8775  11.9583 C.2            1 <1>                0.0000
      9 O9          -0.1142 -15.7417  12.9458 O.2            1 <1>                0.0000
     10 N10          1.4793 -16.8833  11.8989 N.am           1 <1>                0.0000
     11 C11          1.6119 -17.8131  13.0232 C.3            1 <1>                0.0000
     12 C12          1.5238 -19.2513  12.5087 C.3            1 <1>                0.0000
     13 C13          0.2304 -19.4520  11.6900 C.3            1 <1>                0.0000
     14 C14         -0.2477 -20.8765  12.0388 C.3            1 <1>                0.0000
     15 C15          0.7969 -21.4167  13.0388 C.3            1 <1>                0.0000
     16 N16          1.3993 -20.2011  13.6442 N.4            1 <1>                1.0000
     17 H17         -0.9509 -13.4379  11.6045 H              1 <1>                0.0000
     18 H18          2.5751 -17.6597  13.5100 H              1 <1>                0.0000
     19 H19          0.8101 -17.6337  13.7395 H              1 <1>                0.0000
     20 H20          2.3979 -19.4920  11.9036 H              1 <1>                0.0000
     21 H21         -0.5206 -18.7183  11.9828 H              1 <1>                0.0000
     22 H22          0.4415 -19.3740  10.6235 H              1 <1>                0.0000
     23 H23         -1.2335 -20.8421  12.5027 H              1 <1>                0.0000
     24 H24         -0.2713 -21.4978  11.1435 H              1 <1>                0.0000
     25 H25          0.3125 -22.0226  13.8046 H              1 <1>                0.0000
     26 H26          1.5573 -21.9983  12.5173 H              1 <1>                0.0000
     27 H27          1.6941 -15.7559   9.3496 H              1 <1>                0.0000
     28 H28          2.0359 -16.9915  11.1118 H              1 <1>                0.0000
     29 H29          2.3077 -20.4117  14.0293 H              1 <1>                0.0000
     30 H30          0.7916 -19.8231  14.3555 H              1 <1>                0.0000
@<TRIPOS>BOND
    1    1    2 1     
    2    2    3 1     
    3    2    6 2     
    4    3    4 2     
    5    3   17 1     
    6    4    5 1     
    7    4    8 1     
    8    5    6 1     
    9    5   27 1     
   10    6    7 1     
   11    8    9 2     
   12    8   10 am    
   13   10   11 1     
   14   10   28 1     
   15   11   12 1     
   16   11   18 1     
   17   11   19 1     
   18   12   13 1     
   19   12   16 1     
   20   12   20 1     
   21   13   14 1     
   22   13   21 1     
   23   13   22 1     
   24   14   15 1     
   25   14   23 1     
   26   14   24 1     
   27   15   16 1     
   28   15   25 1     
   29   15   26 1     
   30   16   29 1     
   31   16   30 1     
@<TRIPOS>SUBSTRUCTURE
      1 ****           1
@<TRIPOS>SET
DONOR_HYDROGENS      STATIC     ATOMS    <user>   **** ""
4 27 28 29 30
ATOM$RED        STATIC     ATOMS    COLORGROUP SYSTEM
4 27 28 29 30
@<TRIPOS>COMMENT
> <Gold.Version>
2022.2.0

> <Gold.Id.Protein>
3pbl|protein|mol2

> <Gold.Protein.RotatedTorsions>
[ 1303 1298 1297 1294 ] final  123.72 input  179.99 | X-H torsion
[ 2461 2456 2455 2452 ] final -104.98 input   30.03 | X-H torsion
[ 2515 2510 2509 2506 ] final  -27.92 input  -89.99 | X-H torsion
[ 3721 3712 3711 3710 ] final -133.11 input -179.91 | X-H torsion
[ 3841 3832 3831 3830 ] final  -81.83 input -179.91 | X-H torsion
[ 3767 3762 3761 3758 ] final   -3.18 input  -89.99 | X-H torsion
[ 2472 2467 2466 2463 ] final -157.42 input  -89.97 | X-H torsion

> <Gold.Protein.ActiveResidues>
 VAL82   VAL86   LEU89   PHE106  VAL107  ASP110  VAL111  MET112  CYS114  THR115 
 CYS181  SER182  ILE183  PHE188  VAL189  ILE190  SER192  SER193  SER196  TRP342 
 PHE345  PHE346  HIS349  VAL350  TYR365  THR369  GLY372  TYR373 

> <Gold.Protein.RotatedAtoms>
    4.7729   -9.7179    4.9510 H   0  0  0  0  0  0  0  0  0  0  0  0  # atno 1303 bound_to 1298
    0.4369   -9.0563    7.8867 H   0  0  0  0  0  0  0  0  0  0  0  0  # atno 2461 bound_to 2456
   -5.0843   -5.4493    9.2713 H   0  0  0  0  0  0  0  0  0  0  0  0  # atno 2472 bound_to 2467
    2.7102   -7.9915    4.3918 H   0  0  0  0  0  0  0  0  0  0  0  0  # atno 2515 bound_to 2510
   -3.2776  -16.5780   14.2338 H   0  0  0  0  0  0  0  0  0  0  0  0  # atno 3721 bound_to 3712
   -5.3508  -22.6775   10.1681 H   0  0  0  0  0  0  0  0  0  0  0  0  # atno 3767 bound_to 3762
    1.7705  -19.6528    8.7909 H   0  0  0  0  0  0  0  0  0  0  0  0  # atno 3841 bound_to 3832
    3.4069   -9.9202    4.0796 LP  0  0  0  0  0  0  0  0  0  0  0  0  # atno 4297 bound_to 1298
    4.1822   -8.4831    4.0607 LP  0  0  0  0  0  0  0  0  0  0  0  0  # atno 4298 bound_to 1298
    2.0214   -8.8217    8.2055 LP  0  0  0  0  0  0  0  0  0  0  0  0  # atno 4299 bound_to 2456
    1.2792   -7.9304    7.0560 LP  0  0  0  0  0  0  0  0  0  0  0  0  # atno 4300 bound_to 2456
    2.5466   -9.2481    5.4214 LP  0  0  0  0  0  0  0  0  0  0  0  0  # atno 4301 bound_to 2510
    2.0397   -7.7597    5.8624 LP  0  0  0  0  0  0  0  0  0  0  0  0  # atno 4302 bound_to 2510
   -3.0814  -17.5437   12.9663 LP  0  0  0  0  0  0  0  0  0  0  0  0  # atno 4306 bound_to 3712
   -2.6622  -18.0430   14.4635 LP  0  0  0  0  0  0  0  0  0  0  0  0  # atno 4307 bound_to 3712
    3.0958  -20.4603    8.3816 LP  0  0  0  0  0  0  0  0  0  0  0  0  # atno 4314 bound_to 3832
    2.0884  -21.0431    9.5272 LP  0  0  0  0  0  0  0  0  0  0  0  0  # atno 4315 bound_to 3832
   -4.8050  -21.9851   11.5427 LP  0  0  0  0  0  0  0  0  0  0  0  0  # atno 4318 bound_to 3762
   -3.9718  -23.2125   10.8601 LP  0  0  0  0  0  0  0  0  0  0  0  0  # atno 4319 bound_to 3762
   -4.9968   -4.8873    7.7407 LP  0  0  0  0  0  0  0  0  0  0  0  0  # atno 4320 bound_to 2467
   -3.6359   -5.0570    8.6272 LP  0  0  0  0  0  0  0  0  0  0  0  0  # atno 4321 bound_to 2467

> <Gold.Score>
     Score     S(PLP)   S(hbond)     S(cho)   S(metal)  DE(clash)   DE(tors)     intcor
     47.00     -41.17       2.00       0.00       0.00       0.00       0.09       0.02

> <Gold.PLP.Fitness>
47.0048

> <Gold.PLP.PLP>
-41.1668

> <Gold.PLP.part.hbond>
-2.0000

> <Gold.PLP.part.metal>
0.0000

> <Gold.PLP.part.buried>
-5.1808

> <Gold.PLP.part.nonpolar>
-34.3068

> <Gold.PLP.part.repulsive>
0.0787

> <Gold.PLP.ligand.clash>
0.0000

> <Gold.PLP.ligand.torsion>
0.0917

> <Gold.PLP.Chemscore.Hbond>
2.0000

> <Gold.PLP.Chemscore.CHOScore>
0.0000

> <Gold.PLP.Chemscore.Metal>
0.0000

> <Gold.Chemscore.Hbonds>
donor molecule, donor type, donor heavy atom, donor atom, acceptor molecule, acceptor atom, score
      L1  H     5    27       P1  1227  1.00
      L1  H    10    28       P1  1227  1.00

> <Gold.PLP.Chemscore.Internal.Correction>
0.0214

