#       Name:                EN300-366294_i001
#       Creating user name   fsindt
#       Creation time:       Mon Feb 27 23:38:51 2023


#       File generated by GOLD software.
#

@<TRIPOS>MOLECULE
EN300-366294_i001|amine_7|mol2|2142|dock7
    30    31     1
SMALL
USER_CHARGES


@<TRIPOS>ATOM
      1 Cl1         -1.3229 -12.5196  10.1210 Cl             1 <1>                0.0000
      2 C2          -0.3778 -13.8074  10.8008 C.2            1 <1>                0.0000
      3 C3          -0.3983 -14.2282  12.1337 C.2            1 <1>                0.0000
      4 C4           0.4971 -15.2718  12.2442 C.2            1 <1>                0.0000
      5 N5           1.0500 -15.4787  10.9990 N.pl3          1 <1>                0.0000
      6 C6           0.5079 -14.5879  10.1311 C.2            1 <1>                0.0000
      7 Cl7          0.8913 -14.4609   8.4429 Cl             1 <1>                0.0000
      8 C8           0.8049 -16.0234  13.4641 C.2            1 <1>                0.0000
      9 O9           0.2029 -15.7841  14.4945 O.2            1 <1>                0.0000
     10 N10          1.7544 -16.9796  13.4449 N.am           1 <1>                0.0000
     11 C11          2.0621 -17.7310  14.6643 C.3            1 <1>                0.0000
     12 C12          1.1646 -18.9678  14.7414 C.3            1 <1>                0.0000
     13 C13         -0.3114 -18.5516  14.9193 C.3            1 <1>                0.0000
     14 C14         -0.9114 -19.6021  15.8765 C.3            1 <1>                0.0000
     15 C15          0.2525 -20.5645  16.1964 C.3            1 <1>                0.0000
     16 N16          1.4791 -19.7611  15.9574 N.4            1 <1>                1.0000
     17 H17         -1.0016 -13.8138  12.9280 H              1 <1>                0.0000
     18 H18          3.1070 -18.0409  14.6463 H              1 <1>                0.0000
     19 H19          1.8854 -17.0990  15.5347 H              1 <1>                0.0000
     20 H20          1.2822 -19.5782  13.8462 H              1 <1>                0.0000
     21 H21         -0.3737 -17.5573  15.3614 H              1 <1>                0.0000
     22 H22         -0.8291 -18.5736  13.9604 H              1 <1>                0.0000
     23 H23         -1.2683 -19.1233  16.7884 H              1 <1>                0.0000
     24 H24         -1.7236 -20.1398  15.3874 H              1 <1>                0.0000
     25 H25          0.2052 -20.8857  17.2369 H              1 <1>                0.0000
     26 H26          0.2271 -21.4267  15.5298 H              1 <1>                0.0000
     27 H27          1.7138 -16.1510  10.7790 H              1 <1>                0.0000
     28 H28          2.2342 -17.1704  12.6237 H              1 <1>                0.0000
     29 H29          2.2696 -20.3652  15.7900 H              1 <1>                0.0000
     30 H30          1.6590 -19.1505  16.7404 H              1 <1>                0.0000
@<TRIPOS>BOND
    1    1    2 1     
    2    2    3 1     
    3    2    6 2     
    4    3    4 2     
    5    3   17 1     
    6    4    5 1     
    7    4    8 1     
    8    5    6 1     
    9    5   27 1     
   10    6    7 1     
   11    8    9 2     
   12    8   10 am    
   13   10   11 1     
   14   10   28 1     
   15   11   12 1     
   16   11   18 1     
   17   11   19 1     
   18   12   13 1     
   19   12   16 1     
   20   12   20 1     
   21   13   14 1     
   22   13   21 1     
   23   13   22 1     
   24   14   15 1     
   25   14   23 1     
   26   14   24 1     
   27   15   16 1     
   28   15   25 1     
   29   15   26 1     
   30   16   29 1     
   31   16   30 1     
@<TRIPOS>SUBSTRUCTURE
      1 ****           1
@<TRIPOS>SET
DONOR_HYDROGENS      STATIC     ATOMS    <user>   **** ""
4 27 28 29 30
ATOM$RED        STATIC     ATOMS    COLORGROUP SYSTEM
4 27 28 29 30
@<TRIPOS>COMMENT
> <Gold.Version>
2022.2.0

> <Gold.Id.Protein>
3pbl|protein|mol2

> <Gold.Protein.RotatedTorsions>
[ 1303 1298 1297 1294 ] final   -7.21 input  179.99 | X-H torsion
[ 2461 2456 2455 2452 ] final  134.51 input   30.03 | X-H torsion
[ 2515 2510 2509 2506 ] final   20.72 input  -89.99 | X-H torsion
[ 3721 3712 3711 3710 ] final  174.96 input -179.91 | X-H torsion
[ 3841 3832 3831 3830 ] final  -99.38 input -179.91 | X-H torsion
[ 3767 3762 3761 3758 ] final  173.33 input  -89.99 | X-H torsion
[ 2472 2467 2466 2463 ] final  154.34 input  -89.97 | X-H torsion

> <Gold.Protein.ActiveResidues>
 VAL82   VAL86   LEU89   PHE106  VAL107  ASP110  VAL111  MET112  CYS114  THR115 
 CYS181  SER182  ILE183  PHE188  VAL189  ILE190  SER192  SER193  SER196  TRP342 
 PHE345  PHE346  HIS349  VAL350  TYR365  THR369  GLY372  TYR373 

> <Gold.Protein.RotatedAtoms>
    3.3550   -9.7748    3.9878 H   0  0  0  0  0  0  0  0  0  0  0  0  # atno 1303 bound_to 1298
    2.0259   -8.8160    8.2014 H   0  0  0  0  0  0  0  0  0  0  0  0  # atno 2461 bound_to 2456
   -5.4993   -5.2701    8.6474 H   0  0  0  0  0  0  0  0  0  0  0  0  # atno 2472 bound_to 2467
    2.3964   -7.4626    4.8655 H   0  0  0  0  0  0  0  0  0  0  0  0  # atno 2515 bound_to 2510
   -3.3096  -16.6394   13.4786 H   0  0  0  0  0  0  0  0  0  0  0  0  # atno 3721 bound_to 3712
   -4.0388  -22.6152   11.5202 H   0  0  0  0  0  0  0  0  0  0  0  0  # atno 3767 bound_to 3762
    1.9583  -19.5883    8.6169 H   0  0  0  0  0  0  0  0  0  0  0  0  # atno 3841 bound_to 3832
    4.3308   -8.4771    4.1617 LP  0  0  0  0  0  0  0  0  0  0  0  0  # atno 4297 bound_to 1298
    4.6766   -9.8692    4.9422 LP  0  0  0  0  0  0  0  0  0  0  0  0  # atno 4298 bound_to 1298
    1.2712   -7.9316    7.0544 LP  0  0  0  0  0  0  0  0  0  0  0  0  # atno 4299 bound_to 2456
    0.4409   -9.0607    7.8925 LP  0  0  0  0  0  0  0  0  0  0  0  0  # atno 4300 bound_to 2456
    2.7984   -9.0382    4.7175 LP  0  0  0  0  0  0  0  0  0  0  0  0  # atno 4301 bound_to 2510
    2.1020   -8.4987    6.0925 LP  0  0  0  0  0  0  0  0  0  0  0  0  # atno 4302 bound_to 2510
   -2.7056  -18.1265   13.4374 LP  0  0  0  0  0  0  0  0  0  0  0  0  # atno 4306 bound_to 3712
   -3.0011  -17.3894   14.8643 LP  0  0  0  0  0  0  0  0  0  0  0  0  # atno 4307 bound_to 3712
    3.1279  -20.6862    8.5640 LP  0  0  0  0  0  0  0  0  0  0  0  0  # atno 4314 bound_to 3832
    1.8393  -20.8917    9.5459 LP  0  0  0  0  0  0  0  0  0  0  0  0  # atno 4315 bound_to 3832
   -4.6622  -23.2453   10.1486 LP  0  0  0  0  0  0  0  0  0  0  0  0  # atno 4318 bound_to 3762
   -5.4262  -22.0146   10.9026 LP  0  0  0  0  0  0  0  0  0  0  0  0  # atno 4319 bound_to 3762
   -4.2313   -4.8000    7.7322 LP  0  0  0  0  0  0  0  0  0  0  0  0  # atno 4320 bound_to 2467
   -3.9864   -5.3235    9.2595 LP  0  0  0  0  0  0  0  0  0  0  0  0  # atno 4321 bound_to 2467

> <Gold.Score>
     Score     S(PLP)   S(hbond)     S(cho)   S(metal)  DE(clash)   DE(tors)     intcor
     51.70     -43.13       2.99       0.00       0.00       0.00       0.20       0.01

> <Gold.PLP.Fitness>
51.7047

> <Gold.PLP.PLP>
-43.1279

> <Gold.PLP.part.hbond>
-3.0000

> <Gold.PLP.part.metal>
0.0000

> <Gold.PLP.part.buried>
-6.3071

> <Gold.PLP.part.nonpolar>
-34.0531

> <Gold.PLP.part.repulsive>
0.1252

> <Gold.PLP.ligand.clash>
0.0000

> <Gold.PLP.ligand.torsion>
0.2025

> <Gold.PLP.Chemscore.Hbond>
2.9913

> <Gold.PLP.Chemscore.CHOScore>
0.0000

> <Gold.PLP.Chemscore.Metal>
0.0000

> <Gold.Chemscore.Hbonds>
donor molecule, donor type, donor heavy atom, donor atom, acceptor molecule, acceptor atom, score
      L1  H     5    27       P1  1227  0.99
      L1  H    16    30       P1  2287  1.00
      P1  H  2305  2313       L1     9  1.00

> <Gold.PLP.Chemscore.Internal.Correction>
0.0081

