#       Name:                EN300-366294_i001
#       Creating user name   fsindt
#       Creation time:       Mon Feb 27 23:38:53 2023


#       File generated by GOLD software.
#

@<TRIPOS>MOLECULE
EN300-366294_i001|amine_7|mol2|2142|dock10
    30    31     1
SMALL
USER_CHARGES


@<TRIPOS>ATOM
      1 Cl1          0.9670 -12.7785   6.8882 Cl             1 <1>                0.0000
      2 C2           0.4457 -13.1206   8.5083 C.2            1 <1>                0.0000
      3 C3           0.8033 -14.2375   9.2693 C.2            1 <1>                0.0000
      4 C4           0.1727 -14.1161  10.4903 C.2            1 <1>                0.0000
      5 N5          -0.5541 -12.9455  10.4681 N.pl3          1 <1>                0.0000
      6 C6          -0.3765 -12.3483   9.2629 C.2            1 <1>                0.0000
      7 Cl7         -1.0917 -10.8473   8.7642 Cl             1 <1>                0.0000
      8 C8           0.2595 -15.0606  11.6074 C.2            1 <1>                0.0000
      9 O9          -0.3551 -14.8450  12.6356 O.2            1 <1>                0.0000
     10 N10          1.0197 -16.1679  11.4962 N.am           1 <1>                0.0000
     11 C11          1.1064 -17.1120  12.6130 C.3            1 <1>                0.0000
     12 C12          0.1911 -18.3078  12.3423 C.3            1 <1>                0.0000
     13 C13          0.7522 -19.5787  13.0157 C.3            1 <1>                0.0000
     14 C14          0.4514 -20.7228  12.0258 C.3            1 <1>                0.0000
     15 C15         -0.2661 -20.0470  10.8376 C.3            1 <1>                0.0000
     16 N16          0.1738 -18.6291  10.8920 N.4            1 <1>                1.0000
     17 H17          1.4513 -15.0441   8.9594 H              1 <1>                0.0000
     18 H18          2.1348 -17.4580  12.7173 H              1 <1>                0.0000
     19 H19          0.7947 -16.6167  13.5326 H              1 <1>                0.0000
     20 H20         -0.8177 -18.1019  12.6999 H              1 <1>                0.0000
     21 H21          1.8271 -19.4829  13.1684 H              1 <1>                0.0000
     22 H22          0.2484 -19.7576  13.9656 H              1 <1>                0.0000
     23 H23          1.3788 -21.1888  11.6927 H              1 <1>                0.0000
     24 H24         -0.2000 -21.4634  12.4897 H              1 <1>                0.0000
     25 H25          0.0418 -20.5047   9.8974 H              1 <1>                0.0000
     26 H26         -1.3473 -20.1145  10.9581 H              1 <1>                0.0000
     27 H27         -1.0994 -12.6040  11.1941 H              1 <1>                0.0000
     28 H28          1.5095 -16.3397  10.6768 H              1 <1>                0.0000
     29 H29         -0.4835 -18.0368  10.4072 H              1 <1>                0.0000
     30 H30          1.0973 -18.5308  10.4977 H              1 <1>                0.0000
@<TRIPOS>BOND
    1    1    2 1     
    2    2    3 1     
    3    2    6 2     
    4    3    4 2     
    5    3   17 1     
    6    4    5 1     
    7    4    8 1     
    8    5    6 1     
    9    5   27 1     
   10    6    7 1     
   11    8    9 2     
   12    8   10 am    
   13   10   11 1     
   14   10   28 1     
   15   11   12 1     
   16   11   18 1     
   17   11   19 1     
   18   12   13 1     
   19   12   16 1     
   20   12   20 1     
   21   13   14 1     
   22   13   21 1     
   23   13   22 1     
   24   14   15 1     
   25   14   23 1     
   26   14   24 1     
   27   15   16 1     
   28   15   25 1     
   29   15   26 1     
   30   16   29 1     
   31   16   30 1     
@<TRIPOS>SUBSTRUCTURE
      1 ****           1
@<TRIPOS>SET
DONOR_HYDROGENS      STATIC     ATOMS    <user>   **** ""
4 27 28 29 30
ATOM$RED        STATIC     ATOMS    COLORGROUP SYSTEM
4 27 28 29 30
@<TRIPOS>COMMENT
> <Gold.Version>
2022.2.0

> <Gold.Id.Protein>
3pbl|protein|mol2

> <Gold.Protein.RotatedTorsions>
[ 1303 1298 1297 1294 ] final -133.06 input  179.99 | X-H torsion
[ 2461 2456 2455 2452 ] final  161.25 input   30.03 | X-H torsion
[ 2515 2510 2509 2506 ] final -112.09 input  -89.99 | X-H torsion
[ 3721 3712 3711 3710 ] final -177.79 input -179.91 | X-H torsion
[ 3841 3832 3831 3830 ] final   70.96 input -179.91 | X-H torsion
[ 3767 3762 3761 3758 ] final  167.80 input  -89.99 | X-H torsion
[ 2472 2467 2466 2463 ] final -124.85 input  -89.97 | X-H torsion

> <Gold.Protein.ActiveResidues>
 VAL82   VAL86   LEU89   PHE106  VAL107  ASP110  VAL111  MET112  CYS114  THR115 
 CYS181  SER182  ILE183  PHE188  VAL189  ILE190  SER192  SER193  SER196  TRP342 
 PHE345  PHE346  HIS349  VAL350  TYR365  THR369  GLY372  TYR373 

> <Gold.Protein.RotatedAtoms>
    4.4070   -8.4874    4.2193 H   0  0  0  0  0  0  0  0  0  0  0  0  # atno 1303 bound_to 1298
    1.7269   -9.0865    8.3672 H   0  0  0  0  0  0  0  0  0  0  0  0  # atno 2461 bound_to 2456
   -4.5807   -5.4521    9.4328 H   0  0  0  0  0  0  0  0  0  0  0  0  # atno 2472 bound_to 2467
    2.7516   -9.1529    4.8873 H   0  0  0  0  0  0  0  0  0  0  0  0  # atno 2515 bound_to 2510
   -3.3261  -16.5952   13.5775 H   0  0  0  0  0  0  0  0  0  0  0  0  # atno 3721 bound_to 3712
   -3.9994  -22.6836   11.4752 H   0  0  0  0  0  0  0  0  0  0  0  0  # atno 3767 bound_to 3762
    2.6161  -20.9571    9.4352 H   0  0  0  0  0  0  0  0  0  0  0  0  # atno 3841 bound_to 3832
    4.6162   -9.9431    4.9289 LP  0  0  0  0  0  0  0  0  0  0  0  0  # atno 4297 bound_to 1298
    3.3388   -9.6912    3.9434 LP  0  0  0  0  0  0  0  0  0  0  0  0  # atno 4298 bound_to 1298
    1.6800   -7.9398    7.2053 LP  0  0  0  0  0  0  0  0  0  0  0  0  # atno 4299 bound_to 2456
    0.3310   -8.7821    7.5758 LP  0  0  0  0  0  0  0  0  0  0  0  0  # atno 4300 bound_to 2456
    2.0587   -8.2928    6.0898 LP  0  0  0  0  0  0  0  0  0  0  0  0  # atno 4301 bound_to 2510
    2.4862   -7.5530    4.6982 LP  0  0  0  0  0  0  0  0  0  0  0  0  # atno 4302 bound_to 2510
   -2.7455  -18.0726   13.3366 LP  0  0  0  0  0  0  0  0  0  0  0  0  # atno 4306 bound_to 3712
   -2.9421  -17.4943   14.8510 LP  0  0  0  0  0  0  0  0  0  0  0  0  # atno 4307 bound_to 3712
    1.4070  -19.9920    9.0080 LP  0  0  0  0  0  0  0  0  0  0  0  0  # atno 4314 bound_to 3832
    2.8003  -20.0046    8.1566 LP  0  0  0  0  0  0  0  0  0  0  0  0  # atno 4315 bound_to 3832
   -4.7395  -23.2090   10.1175 LP  0  0  0  0  0  0  0  0  0  0  0  0  # atno 4318 bound_to 3762
   -5.3882  -21.9825   10.9786 LP  0  0  0  0  0  0  0  0  0  0  0  0  # atno 4319 bound_to 3762
   -5.3802   -5.0473    8.0678 LP  0  0  0  0  0  0  0  0  0  0  0  0  # atno 4320 bound_to 2467
   -3.7560   -4.8942    8.1386 LP  0  0  0  0  0  0  0  0  0  0  0  0  # atno 4321 bound_to 2467

> <Gold.Score>
     Score     S(PLP)   S(hbond)     S(cho)   S(metal)  DE(clash)   DE(tors)     intcor
     46.43     -38.35       2.99       0.00       0.00       0.00       0.45       0.01

> <Gold.PLP.Fitness>
46.4280

> <Gold.PLP.PLP>
-38.3541

> <Gold.PLP.part.hbond>
-2.0000

> <Gold.PLP.part.metal>
0.0000

> <Gold.PLP.part.buried>
-4.6883

> <Gold.PLP.part.nonpolar>
-32.1846

> <Gold.PLP.part.repulsive>
0.0933

> <Gold.PLP.ligand.clash>
0.0000

> <Gold.PLP.ligand.torsion>
0.4542

> <Gold.PLP.Chemscore.Hbond>
2.9920

> <Gold.PLP.Chemscore.CHOScore>
0.0000

> <Gold.PLP.Chemscore.Metal>
0.0000

> <Gold.Chemscore.Hbonds>
donor molecule, donor type, donor heavy atom, donor atom, acceptor molecule, acceptor atom, score
      L1  H    10    28       P1  1227  0.99
      L1  H    16    30       P1  1227  2.00

> <Gold.PLP.Chemscore.Internal.Correction>
0.0062

