#       Name:                EN300-366294_i001
#       Creating user name   fsindt
#       Creation time:       Mon Feb 27 23:38:57 2023


#       File generated by GOLD software.
#

@<TRIPOS>MOLECULE
EN300-366294_i001|amine_7|mol2|2142|dock16
    30    31     1
SMALL
USER_CHARGES


@<TRIPOS>ATOM
      1 Cl1          1.0399 -20.6631  15.5384 Cl             1 <1>                0.0000
      2 C2           1.1160 -19.5216  14.2327 C.2            1 <1>                0.0000
      3 C3           0.9243 -18.1406  14.3348 C.2            1 <1>                0.0000
      4 C4           1.0726 -17.6151  13.0679 C.2            1 <1>                0.0000
      5 N5           1.3495 -18.6606  12.2140 N.pl3          1 <1>                0.0000
      6 C6           1.3781 -19.8108  12.9329 C.2            1 <1>                0.0000
      7 Cl7          1.6892 -21.3943  12.2932 Cl             1 <1>                0.0000
      8 C8           0.9564 -16.2020  12.6975 C.2            1 <1>                0.0000
      9 O9           0.6927 -15.3701  13.5460 O.2            1 <1>                0.0000
     10 N10          1.1416 -15.8235  11.4174 N.am           1 <1>                0.0000
     11 C11          1.0255 -14.4108  11.0471 C.3            1 <1>                0.0000
     12 C12          1.3405 -14.2461   9.5589 C.3            1 <1>                0.0000
     13 C13          0.6097 -13.0121   8.9873 C.3            1 <1>                0.0000
     14 C14          0.1771 -13.4256   7.5655 C.3            1 <1>                0.0000
     15 C15          0.6827 -14.8745   7.3977 C.3            1 <1>                0.0000
     16 N16          0.7999 -15.3931   8.7849 N.4            1 <1>                1.0000
     17 H17          0.7014 -17.5889  15.2362 H              1 <1>                0.0000
     18 H18          0.0104 -14.0658  11.2439 H              1 <1>                0.0000
     19 H19          1.7297 -13.8221  11.6349 H              1 <1>                0.0000
     20 H20          2.4159 -14.1554   9.4065 H              1 <1>                0.0000
     21 H21         -0.2636 -12.7743   9.5946 H              1 <1>                0.0000
     22 H22          1.2857 -12.1582   8.9441 H              1 <1>                0.0000
     23 H23         -0.9086 -13.3905   7.4749 H              1 <1>                0.0000
     24 H24          0.6407 -12.7746   6.8243 H              1 <1>                0.0000
     25 H25         -0.0369 -15.4650   6.8306 H              1 <1>                0.0000
     26 H26          1.6552 -14.8831   6.9052 H              1 <1>                0.0000
     27 H27          1.5014 -18.5863  11.2588 H              1 <1>                0.0000
     28 H28          1.3518 -16.4864  10.7411 H              1 <1>                0.0000
     29 H29          1.4390 -16.1731   8.8172 H              1 <1>                0.0000
     30 H30         -0.1059 -15.6621   9.1387 H              1 <1>                0.0000
@<TRIPOS>BOND
    1    1    2 1     
    2    2    3 1     
    3    2    6 2     
    4    3    4 2     
    5    3   17 1     
    6    4    5 1     
    7    4    8 1     
    8    5    6 1     
    9    5   27 1     
   10    6    7 1     
   11    8    9 2     
   12    8   10 am    
   13   10   11 1     
   14   10   28 1     
   15   11   12 1     
   16   11   18 1     
   17   11   19 1     
   18   12   13 1     
   19   12   16 1     
   20   12   20 1     
   21   13   14 1     
   22   13   21 1     
   23   13   22 1     
   24   14   15 1     
   25   14   23 1     
   26   14   24 1     
   27   15   16 1     
   28   15   25 1     
   29   15   26 1     
   30   16   29 1     
   31   16   30 1     
@<TRIPOS>SUBSTRUCTURE
      1 ****           1
@<TRIPOS>SET
DONOR_HYDROGENS      STATIC     ATOMS    <user>   **** ""
4 27 28 29 30
ATOM$RED        STATIC     ATOMS    COLORGROUP SYSTEM
4 27 28 29 30
@<TRIPOS>COMMENT
> <Gold.Version>
2022.2.0

> <Gold.Id.Protein>
3pbl|protein|mol2

> <Gold.Protein.RotatedTorsions>
[ 1303 1298 1297 1294 ] final -152.35 input  179.99 | X-H torsion
[ 2461 2456 2455 2452 ] final   19.92 input   30.03 | X-H torsion
[ 2515 2510 2509 2506 ] final  -40.48 input  -89.99 | X-H torsion
[ 3721 3712 3711 3710 ] final   65.27 input -179.91 | X-H torsion
[ 3841 3832 3831 3830 ] final   39.40 input -179.91 | X-H torsion
[ 3767 3762 3761 3758 ] final   98.00 input  -89.99 | X-H torsion
[ 2472 2467 2466 2463 ] final    3.82 input  -89.97 | X-H torsion

> <Gold.Protein.ActiveResidues>
 VAL82   VAL86   LEU89   PHE106  VAL107  ASP110  VAL111  MET112  CYS114  THR115 
 CYS181  SER182  ILE183  PHE188  VAL189  ILE190  SER192  SER193  SER196  TRP342 
 PHE345  PHE346  HIS349  VAL350  TYR365  THR369  GLY372  TYR373 

> <Gold.Protein.RotatedAtoms>
    4.6345   -8.5852    4.4153 H   0  0  0  0  0  0  0  0  0  0  0  0  # atno 1303 bound_to 1298
    1.3572   -7.9210    7.0739 H   0  0  0  0  0  0  0  0  0  0  0  0  # atno 2461 bound_to 2456
   -3.8348   -4.8624    8.0242 H   0  0  0  0  0  0  0  0  0  0  0  0  # atno 2472 bound_to 2467
    2.7672   -8.1865    4.3565 H   0  0  0  0  0  0  0  0  0  0  0  0  # atno 2515 bound_to 2510
   -2.6203  -17.8668   13.3220 H   0  0  0  0  0  0  0  0  0  0  0  0  # atno 3721 bound_to 3712
   -4.1124  -23.3097   10.6035 H   0  0  0  0  0  0  0  0  0  0  0  0  # atno 3767 bound_to 3762
    2.1897  -20.8517    9.6048 H   0  0  0  0  0  0  0  0  0  0  0  0  # atno 3841 bound_to 3832
    4.3847  -10.1407    4.8446 LP  0  0  0  0  0  0  0  0  0  0  0  0  # atno 4297 bound_to 1298
    3.3428   -9.3958    3.8316 LP  0  0  0  0  0  0  0  0  0  0  0  0  # atno 4298 bound_to 1298
    0.4035   -9.0106    7.8294 LP  0  0  0  0  0  0  0  0  0  0  0  0  # atno 4299 bound_to 2456
    1.9771   -8.8764    8.2446 LP  0  0  0  0  0  0  0  0  0  0  0  0  # atno 4300 bound_to 2456
    2.4597   -9.1971    5.6014 LP  0  0  0  0  0  0  0  0  0  0  0  0  # atno 4301 bound_to 2510
    2.0696   -7.6156    5.7178 LP  0  0  0  0  0  0  0  0  0  0  0  0  # atno 4302 bound_to 2510
   -2.9414  -17.4957   14.8508 LP  0  0  0  0  0  0  0  0  0  0  0  0  # atno 4306 bound_to 3712
   -3.5612  -16.6032   13.6318 LP  0  0  0  0  0  0  0  0  0  0  0  0  # atno 4307 bound_to 3712
    1.6236  -19.7138    8.6248 LP  0  0  0  0  0  0  0  0  0  0  0  0  # atno 4314 bound_to 3832
    3.0763  -20.4046    8.3438 LP  0  0  0  0  0  0  0  0  0  0  0  0  # atno 4315 bound_to 3832
   -5.4719  -22.4466   10.3325 LP  0  0  0  0  0  0  0  0  0  0  0  0  # atno 4318 bound_to 3762
   -4.5428  -22.1190   11.6349 LP  0  0  0  0  0  0  0  0  0  0  0  0  # atno 4319 bound_to 3762
   -4.4393   -5.4344    9.4291 LP  0  0  0  0  0  0  0  0  0  0  0  0  # atno 4320 bound_to 2467
   -5.4427   -5.0967    8.1858 LP  0  0  0  0  0  0  0  0  0  0  0  0  # atno 4321 bound_to 2467

> <Gold.Score>
     Score     S(PLP)   S(hbond)     S(cho)   S(metal)  DE(clash)   DE(tors)     intcor
     44.86     -34.95       3.49       0.00       0.00       0.00       0.28       0.01

> <Gold.PLP.Fitness>
44.8595

> <Gold.PLP.PLP>
-34.9510

> <Gold.PLP.part.hbond>
-2.7518

> <Gold.PLP.part.metal>
0.0000

> <Gold.PLP.part.buried>
-5.4771

> <Gold.PLP.part.nonpolar>
-27.6937

> <Gold.PLP.part.repulsive>
0.0349

> <Gold.PLP.ligand.clash>
0.0000

> <Gold.PLP.ligand.torsion>
0.2797

> <Gold.PLP.Chemscore.Hbond>
3.4872

> <Gold.PLP.Chemscore.CHOScore>
0.0000

> <Gold.PLP.Chemscore.Metal>
0.0000

> <Gold.Chemscore.Hbonds>
donor molecule, donor type, donor heavy atom, donor atom, acceptor molecule, acceptor atom, score
      L1  H     5    27       P1  1227  0.42
      L1  H    10    28       P1  1227  1.00
      L1  H    16    29       P1  1227  2.00
      P1  H  2305  2313       L1     9  0.06

> <Gold.PLP.Chemscore.Internal.Correction>
0.0062

