#       Name:                EN300-366294_i001
#       Creating user name   fsindt
#       Creation time:       Mon Feb 27 23:38:56 2023


#       File generated by GOLD software.
#

@<TRIPOS>MOLECULE
EN300-366294_i001|amine_7|mol2|2142|dock14
    30    31     1
SMALL
USER_CHARGES


@<TRIPOS>ATOM
      1 Cl1         -1.2497 -11.8636  10.2025 Cl             1 <1>                0.0000
      2 C2          -0.3890 -13.3448  10.4831 C.2            1 <1>                0.0000
      3 C3          -0.4550 -14.1287  11.6387 C.2            1 <1>                0.0000
      4 C4           0.3790 -15.2102  11.4443 C.2            1 <1>                0.0000
      5 N5           0.9401 -15.0826  10.1921 N.pl3          1 <1>                0.0000
      6 C6           0.4628 -13.9502   9.6172 C.2            1 <1>                0.0000
      7 Cl7          0.8807 -13.3663   8.0367 Cl             1 <1>                0.0000
      8 C8           0.6243 -16.2969  12.3964 C.2            1 <1>                0.0000
      9 O9           0.1471 -16.2453  13.5149 O.2            1 <1>                0.0000
     10 N10          1.3780 -17.3535  12.0335 N.am           1 <1>                0.0000
     11 C11          1.6232 -18.4399  12.9853 C.3            1 <1>                0.0000
     12 C12          0.6108 -19.5626  12.7496 C.3            1 <1>                0.0000
     13 C13          0.8621 -20.7287  13.7296 C.3            1 <1>                0.0000
     14 C14          0.5815 -22.0066  12.9124 C.3            1 <1>                0.0000
     15 C15          0.1842 -21.5052  11.5075 C.3            1 <1>                0.0000
     16 N16          0.8020 -20.1582  11.4021 N.4            1 <1>                1.0000
     17 H17         -1.0475 -13.9255  12.5186 H              1 <1>                0.0000
     18 H18          2.6329 -18.8257  12.8442 H              1 <1>                0.0000
     19 H19          1.5171 -18.0626  14.0024 H              1 <1>                0.0000
     20 H20         -0.4060 -19.1859  12.8598 H              1 <1>                0.0000
     21 H21          1.8966 -20.7184  14.0729 H              1 <1>                0.0000
     22 H22          0.1804 -20.6642  14.5776 H              1 <1>                0.0000
     23 H23          1.4782 -22.6237  12.8547 H              1 <1>                0.0000
     24 H24         -0.2381 -22.5694  13.3593 H              1 <1>                0.0000
     25 H25          0.5841 -22.1679  10.7401 H              1 <1>                0.0000
     26 H26         -0.9002 -21.4337  11.4218 H              1 <1>                0.0000
     27 H27          1.5691 -15.7007   9.7880 H              1 <1>                0.0000
     28 H28          1.7584 -17.3947  11.1420 H              1 <1>                0.0000
     29 H29          0.3289 -19.6067  10.7022 H              1 <1>                0.0000
     30 H30          1.7847 -20.2367  11.1871 H              1 <1>                0.0000
@<TRIPOS>BOND
    1    1    2 1     
    2    2    3 1     
    3    2    6 2     
    4    3    4 2     
    5    3   17 1     
    6    4    5 1     
    7    4    8 1     
    8    5    6 1     
    9    5   27 1     
   10    6    7 1     
   11    8    9 2     
   12    8   10 am    
   13   10   11 1     
   14   10   28 1     
   15   11   12 1     
   16   11   18 1     
   17   11   19 1     
   18   12   13 1     
   19   12   16 1     
   20   12   20 1     
   21   13   14 1     
   22   13   21 1     
   23   13   22 1     
   24   14   15 1     
   25   14   23 1     
   26   14   24 1     
   27   15   16 1     
   28   15   25 1     
   29   15   26 1     
   30   16   29 1     
   31   16   30 1     
@<TRIPOS>SUBSTRUCTURE
      1 ****           1
@<TRIPOS>SET
DONOR_HYDROGENS      STATIC     ATOMS    <user>   **** ""
4 27 28 29 30
ATOM$RED        STATIC     ATOMS    COLORGROUP SYSTEM
4 27 28 29 30
@<TRIPOS>COMMENT
> <Gold.Version>
2022.2.0

> <Gold.Id.Protein>
3pbl|protein|mol2

> <Gold.Protein.RotatedTorsions>
[ 1303 1298 1297 1294 ] final  158.03 input  179.99 | X-H torsion
[ 2461 2456 2455 2452 ] final  -96.54 input   30.03 | X-H torsion
[ 2515 2510 2509 2506 ] final  143.44 input  -89.99 | X-H torsion
[ 3721 3712 3711 3710 ] final  -80.07 input -179.91 | X-H torsion
[ 3841 3832 3831 3830 ] final  -43.51 input -179.91 | X-H torsion
[ 3767 3762 3761 3758 ] final  -25.31 input  -89.99 | X-H torsion
[ 2472 2467 2466 2463 ] final   99.83 input  -89.97 | X-H torsion

> <Gold.Protein.ActiveResidues>
 VAL82   VAL86   LEU89   PHE106  VAL107  ASP110  VAL111  MET112  CYS114  THR115 
 CYS181  SER182  ILE183  PHE188  VAL189  ILE190  SER192  SER193  SER196  TRP342 
 PHE345  PHE346  HIS349  VAL350  TYR365  THR369  GLY372  TYR373 

> <Gold.Protein.RotatedAtoms>
    4.9116   -9.1904    4.8428 H   0  0  0  0  0  0  0  0  0  0  0  0  # atno 1303 bound_to 1298
    0.3827   -8.9758    7.7875 H   0  0  0  0  0  0  0  0  0  0  0  0  # atno 2461 bound_to 2456
   -5.2256   -4.9659    7.8870 H   0  0  0  0  0  0  0  0  0  0  0  0  # atno 2472 bound_to 2467
    2.1136   -8.5416    6.0872 H   0  0  0  0  0  0  0  0  0  0  0  0  # atno 2515 bound_to 2510
   -2.9511  -17.0704   14.7331 H   0  0  0  0  0  0  0  0  0  0  0  0  # atno 3721 bound_to 3712
   -5.4848  -22.4066   10.3673 H   0  0  0  0  0  0  0  0  0  0  0  0  # atno 3767 bound_to 3762
    1.5636  -19.9770    9.2093 H   0  0  0  0  0  0  0  0  0  0  0  0  # atno 3841 bound_to 3832
    3.7234  -10.2271    4.4187 LP  0  0  0  0  0  0  0  0  0  0  0  0  # atno 4297 bound_to 1298
    3.7268   -8.7039    3.8300 LP  0  0  0  0  0  0  0  0  0  0  0  0  # atno 4298 bound_to 1298
    1.9417   -8.9147    8.2705 LP  0  0  0  0  0  0  0  0  0  0  0  0  # atno 4299 bound_to 2456
    1.4131   -7.9178    7.0901 LP  0  0  0  0  0  0  0  0  0  0  0  0  # atno 4300 bound_to 2456
    2.3772   -7.4485    4.9033 LP  0  0  0  0  0  0  0  0  0  0  0  0  # atno 4301 bound_to 2510
    2.8060   -9.0089    4.6843 LP  0  0  0  0  0  0  0  0  0  0  0  0  # atno 4302 bound_to 2510
   -3.4675  -16.8286   13.2322 LP  0  0  0  0  0  0  0  0  0  0  0  0  # atno 4306 bound_to 3712
   -2.6531  -18.1896   13.6212 LP  0  0  0  0  0  0  0  0  0  0  0  0  # atno 4307 bound_to 3712
    2.7693  -19.9758    8.1499 LP  0  0  0  0  0  0  0  0  0  0  0  0  # atno 4314 bound_to 3832
    2.6538  -21.1531    9.2756 LP  0  0  0  0  0  0  0  0  0  0  0  0  # atno 4315 bound_to 3832
   -4.4979  -22.1485   11.6426 LP  0  0  0  0  0  0  0  0  0  0  0  0  # atno 4318 bound_to 3762
   -4.1449  -23.3199   10.5610 LP  0  0  0  0  0  0  0  0  0  0  0  0  # atno 4319 bound_to 3762
   -3.6631   -4.9642    8.3613 LP  0  0  0  0  0  0  0  0  0  0  0  0  # atno 4320 bound_to 2467
   -4.8284   -5.4634    9.3907 LP  0  0  0  0  0  0  0  0  0  0  0  0  # atno 4321 bound_to 2467

> <Gold.Score>
     Score     S(PLP)   S(hbond)     S(cho)   S(metal)  DE(clash)   DE(tors)     intcor
     46.42     -41.41       1.80       0.00       0.00       0.00       0.19       0.01

> <Gold.PLP.Fitness>
46.4203

> <Gold.PLP.PLP>
-41.4052

> <Gold.PLP.part.hbond>
-2.9989

> <Gold.PLP.part.metal>
0.0000

> <Gold.PLP.part.buried>
-5.3673

> <Gold.PLP.part.nonpolar>
-33.5155

> <Gold.PLP.part.repulsive>
0.0318

> <Gold.PLP.ligand.clash>
0.0000

> <Gold.PLP.ligand.torsion>
0.1899

> <Gold.PLP.Chemscore.Hbond>
1.7963

> <Gold.PLP.Chemscore.CHOScore>
0.0000

> <Gold.PLP.Chemscore.Metal>
0.0000

> <Gold.Chemscore.Hbonds>
donor molecule, donor type, donor heavy atom, donor atom, acceptor molecule, acceptor atom, score
      L1  H     5    27       P1  1227  0.80
      L1  H    10    28       P1  1227  1.00

> <Gold.PLP.Chemscore.Internal.Correction>
0.0062

