#       Name:                EN300-366294_i001
#       Creating user name   fsindt
#       Creation time:       Mon Feb 27 23:39:00 2023


#       File generated by GOLD software.
#

@<TRIPOS>MOLECULE
EN300-366294_i001|amine_7|mol2|2142|dock19
    30    31     1
SMALL
USER_CHARGES


@<TRIPOS>ATOM
      1 Cl1          0.1657 -21.5385  12.0646 Cl             1 <1>                0.0000
      2 C2           0.2457 -19.8889  12.5993 C.2            1 <1>                0.0000
      3 C3           0.1962 -18.7557  11.7823 C.2            1 <1>                0.0000
      4 C4           0.2901 -17.6547  12.6083 C.2            1 <1>                0.0000
      5 N5           0.3945 -18.1145  13.9033 N.pl3          1 <1>                0.0000
      6 C6           0.3613 -19.4706  13.8853 C.2            1 <1>                0.0000
      7 Cl7          0.4605 -20.5021  15.2780 Cl             1 <1>                0.0000
      8 C8           0.2809 -16.2516  12.1856 C.2            1 <1>                0.0000
      9 O9          -0.0976 -15.3870  12.9541 O.2            1 <1>                0.0000
     10 N10          0.6918 -15.9186  10.9460 N.am           1 <1>                0.0000
     11 C11          0.6826 -14.5159  10.5234 C.3            1 <1>                0.0000
     12 C12          1.1642 -14.4166   9.0746 C.3            1 <1>                0.0000
     13 C13          0.4412 -13.2642   8.3447 C.3            1 <1>                0.0000
     14 C14          0.2051 -13.7833   6.9114 C.3            1 <1>                0.0000
     15 C15          0.8053 -15.2055   6.8958 C.3            1 <1>                0.0000
     16 N16          0.7835 -15.6366   8.3173 N.4            1 <1>                1.0000
     17 H17          0.1026 -18.7442  10.7064 H              1 <1>                0.0000
     18 H18         -0.3305 -14.1207  10.5974 H              1 <1>                0.0000
     19 H19          1.3459 -13.9382  11.1672 H              1 <1>                0.0000
     20 H20          2.2436 -14.2687   9.0428 H              1 <1>                0.0000
     21 H21         -0.5102 -13.0467   8.8300 H              1 <1>                0.0000
     22 H22          1.0700 -12.3742   8.3263 H              1 <1>                0.0000
     23 H23         -0.8622 -13.8204   6.6931 H              1 <1>                0.0000
     24 H24          0.7181 -13.1480   6.1893 H              1 <1>                0.0000
     25 H25          0.1921 -15.8704   6.2875 H              1 <1>                0.0000
     26 H26          1.8288 -15.1821   6.5213 H              1 <1>                0.0000
     27 H27          0.4752 -17.5608  14.6957 H              1 <1>                0.0000
     28 H28          0.9935 -16.6077  10.3335 H              1 <1>                0.0000
     29 H29          1.4557 -16.3727   8.4731 H              1 <1>                0.0000
     30 H30         -0.1422 -15.9404   8.5797 H              1 <1>                0.0000
@<TRIPOS>BOND
    1    1    2 1     
    2    2    3 1     
    3    2    6 2     
    4    3    4 2     
    5    3   17 1     
    6    4    5 1     
    7    4    8 1     
    8    5    6 1     
    9    5   27 1     
   10    6    7 1     
   11    8    9 2     
   12    8   10 am    
   13   10   11 1     
   14   10   28 1     
   15   11   12 1     
   16   11   18 1     
   17   11   19 1     
   18   12   13 1     
   19   12   16 1     
   20   12   20 1     
   21   13   14 1     
   22   13   21 1     
   23   13   22 1     
   24   14   15 1     
   25   14   23 1     
   26   14   24 1     
   27   15   16 1     
   28   15   25 1     
   29   15   26 1     
   30   16   29 1     
   31   16   30 1     
@<TRIPOS>SUBSTRUCTURE
      1 ****           1
@<TRIPOS>SET
DONOR_HYDROGENS      STATIC     ATOMS    <user>   **** ""
4 27 28 29 30
ATOM$RED        STATIC     ATOMS    COLORGROUP SYSTEM
4 27 28 29 30
@<TRIPOS>COMMENT
> <Gold.Version>
2022.2.0

> <Gold.Id.Protein>
3pbl|protein|mol2

> <Gold.Protein.RotatedTorsions>
[ 1303 1298 1297 1294 ] final  -61.93 input  179.99 | X-H torsion
[ 2461 2456 2455 2452 ] final   42.05 input   30.03 | X-H torsion
[ 2515 2510 2509 2506 ] final   93.87 input  -89.99 | X-H torsion
[ 3721 3712 3711 3710 ] final  167.45 input -179.91 | X-H torsion
[ 3841 3832 3831 3830 ] final   92.81 input -179.91 | X-H torsion
[ 3767 3762 3761 3758 ] final  154.70 input  -89.99 | X-H torsion
[ 2472 2467 2466 2463 ] final  154.51 input  -89.97 | X-H torsion

> <Gold.Protein.ActiveResidues>
 VAL82   VAL86   LEU89   PHE106  VAL107  ASP110  VAL111  MET112  CYS114  THR115 
 CYS181  SER182  ILE183  PHE188  VAL189  ILE190  SER192  SER193  SER196  TRP342 
 PHE345  PHE346  HIS349  VAL350  TYR365  THR369  GLY372  TYR373 

> <Gold.Protein.RotatedAtoms>
    3.5154   -8.9494    3.7790 H   0  0  0  0  0  0  0  0  0  0  0  0  # atno 1303 bound_to 1298
    1.6914   -7.9421    7.2116 H   0  0  0  0  0  0  0  0  0  0  0  0  # atno 2461 bound_to 2456
   -5.4989   -5.2710    8.6500 H   0  0  0  0  0  0  0  0  0  0  0  0  # atno 2472 bound_to 2467
    2.0373   -7.7827    5.8803 H   0  0  0  0  0  0  0  0  0  0  0  0  # atno 2515 bound_to 2510
   -3.2856  -16.6960   13.3833 H   0  0  0  0  0  0  0  0  0  0  0  0  # atno 3721 bound_to 3712
   -3.9330  -22.8426   11.3463 H   0  0  0  0  0  0  0  0  0  0  0  0  # atno 3767 bound_to 3762
    2.8717  -20.9102    9.2349 H   0  0  0  0  0  0  0  0  0  0  0  0  # atno 3841 bound_to 3832
    4.8649   -8.9004    4.6971 LP  0  0  0  0  0  0  0  0  0  0  0  0  # atno 4297 bound_to 1298
    3.9821  -10.2717    4.6157 LP  0  0  0  0  0  0  0  0  0  0  0  0  # atno 4298 bound_to 1298
    0.3307   -8.7728    7.5664 LP  0  0  0  0  0  0  0  0  0  0  0  0  # atno 4299 bound_to 2456
    1.7158   -9.0931    8.3700 LP  0  0  0  0  0  0  0  0  0  0  0  0  # atno 4300 bound_to 2456
    2.7010   -7.9649    4.3998 LP  0  0  0  0  0  0  0  0  0  0  0  0  # atno 4301 bound_to 2510
    2.5587   -9.2518    5.3948 LP  0  0  0  0  0  0  0  0  0  0  0  0  # atno 4302 bound_to 2510
   -2.6708  -18.1698   13.5498 LP  0  0  0  0  0  0  0  0  0  0  0  0  # atno 4306 bound_to 3712
   -3.0636  -17.2807   14.8620 LP  0  0  0  0  0  0  0  0  0  0  0  0  # atno 4307 bound_to 3712
    1.4038  -20.2613    9.2512 LP  0  0  0  0  0  0  0  0  0  0  0  0  # atno 4314 bound_to 3832
    2.5083  -19.7895    8.1448 LP  0  0  0  0  0  0  0  0  0  0  0  0  # atno 4315 bound_to 3832
   -4.9204  -23.1020   10.0717 LP  0  0  0  0  0  0  0  0  0  0  0  0  # atno 4318 bound_to 3762
   -5.2737  -21.9305   11.1532 LP  0  0  0  0  0  0  0  0  0  0  0  0  # atno 4319 bound_to 3762
   -4.2339   -4.7999    7.7312 LP  0  0  0  0  0  0  0  0  0  0  0  0  # atno 4320 bound_to 2467
   -3.9843   -5.3227    9.2580 LP  0  0  0  0  0  0  0  0  0  0  0  0  # atno 4321 bound_to 2467

> <Gold.Score>
     Score     S(PLP)   S(hbond)     S(cho)   S(metal)  DE(clash)   DE(tors)     intcor
     47.22     -39.94       2.88       0.00       0.00       0.00       0.68       0.01

> <Gold.PLP.Fitness>
47.2238

> <Gold.PLP.PLP>
-39.9403

> <Gold.PLP.part.hbond>
-2.0000

> <Gold.PLP.part.metal>
0.0000

> <Gold.PLP.part.buried>
-5.7082

> <Gold.PLP.part.nonpolar>
-32.4866

> <Gold.PLP.part.repulsive>
0.0717

> <Gold.PLP.ligand.clash>
0.0000

> <Gold.PLP.ligand.torsion>
0.6814

> <Gold.PLP.Chemscore.Hbond>
2.8800

> <Gold.PLP.Chemscore.CHOScore>
0.0000

> <Gold.PLP.Chemscore.Metal>
0.0000

> <Gold.Chemscore.Hbonds>
donor molecule, donor type, donor heavy atom, donor atom, acceptor molecule, acceptor atom, score
      L1  H    10    28       P1  1227  0.88
      L1  H    16    29       P1  1227  2.00

> <Gold.PLP.Chemscore.Internal.Correction>
0.0062

