#       Name:                EN300-366294_i001
#       Creating user name   fsindt
#       Creation time:       Mon Feb 27 23:38:57 2023


#       File generated by GOLD software.
#

@<TRIPOS>MOLECULE
EN300-366294_i001|amine_7|mol2|2142|dock15
    30    31     1
SMALL
USER_CHARGES


@<TRIPOS>ATOM
      1 Cl1         -1.4363 -12.1734  10.0801 Cl             1 <1>                0.0000
      2 C2          -0.3981 -13.4998  10.5000 C.2            1 <1>                0.0000
      3 C3          -0.2979 -14.0999  11.7587 C.2            1 <1>                0.0000
      4 C4           0.6371 -15.1089  11.6545 C.2            1 <1>                0.0000
      5 N5           1.0946 -15.1190  10.3546 N.pl3          1 <1>                0.0000
      6 C6           0.4558 -14.1421   9.6632 C.2            1 <1>                0.0000
      7 Cl7          0.6982 -13.7683   7.9854 Cl             1 <1>                0.0000
      8 C8           1.0661 -16.0065  12.7306 C.2            1 <1>                0.0000
      9 O9           0.8184 -15.7291  13.8895 O.2            1 <1>                0.0000
     10 N10          1.7348 -17.1391  12.4368 N.am           1 <1>                0.0000
     11 C11          2.1637 -18.0364  13.5125 C.3            1 <1>                0.0000
     12 C12          1.1264 -19.1462  13.6950 C.3            1 <1>                0.0000
     13 C13          1.3925 -20.3000  12.7043 C.3            1 <1>                0.0000
     14 C14         -0.0057 -20.7867  12.2710 C.3            1 <1>                0.0000
     15 C15         -0.9989 -19.8861  13.0363 C.3            1 <1>                0.0000
     16 N16         -0.2287 -18.6523  13.3392 N.4            1 <1>                1.0000
     17 H17         -0.8487 -13.8248  12.6461 H              1 <1>                0.0000
     18 H18          3.1266 -18.4778  13.2553 H              1 <1>                0.0000
     19 H19          2.2589 -17.4720  14.4402 H              1 <1>                0.0000
     20 H20          1.1415 -19.5147  14.7206 H              1 <1>                0.0000
     21 H21          1.9511 -19.9370  11.8417 H              1 <1>                0.0000
     22 H22          1.9373 -21.1047  13.1979 H              1 <1>                0.0000
     23 H23         -0.1333 -20.6627  11.1956 H              1 <1>                0.0000
     24 H24         -0.1472 -21.8303  12.5520 H              1 <1>                0.0000
     25 H25         -1.8603 -19.6524  12.4104 H              1 <1>                0.0000
     26 H26         -1.3186 -20.3708  13.9589 H              1 <1>                0.0000
     27 H27          1.7602 -15.7253   9.9935 H              1 <1>                0.0000
     28 H28          1.9323 -17.3602  11.5132 H              1 <1>                0.0000
     29 H29         -0.6411 -18.1612  14.1181 H              1 <1>                0.0000
     30 H30         -0.1848 -18.0555  12.5268 H              1 <1>                0.0000
@<TRIPOS>BOND
    1    1    2 1     
    2    2    3 1     
    3    2    6 2     
    4    3    4 2     
    5    3   17 1     
    6    4    5 1     
    7    4    8 1     
    8    5    6 1     
    9    5   27 1     
   10    6    7 1     
   11    8    9 2     
   12    8   10 am    
   13   10   11 1     
   14   10   28 1     
   15   11   12 1     
   16   11   18 1     
   17   11   19 1     
   18   12   13 1     
   19   12   16 1     
   20   12   20 1     
   21   13   14 1     
   22   13   21 1     
   23   13   22 1     
   24   14   15 1     
   25   14   23 1     
   26   14   24 1     
   27   15   16 1     
   28   15   25 1     
   29   15   26 1     
   30   16   29 1     
   31   16   30 1     
@<TRIPOS>SUBSTRUCTURE
      1 ****           1
@<TRIPOS>SET
DONOR_HYDROGENS      STATIC     ATOMS    <user>   **** ""
4 27 28 29 30
ATOM$RED        STATIC     ATOMS    COLORGROUP SYSTEM
4 27 28 29 30
@<TRIPOS>COMMENT
> <Gold.Version>
2022.2.0

> <Gold.Id.Protein>
3pbl|protein|mol2

> <Gold.Protein.RotatedTorsions>
[ 1303 1298 1297 1294 ] final  -81.53 input  179.99 | X-H torsion
[ 2461 2456 2455 2452 ] final  -89.09 input   30.03 | X-H torsion
[ 2515 2510 2509 2506 ] final  -16.33 input  -89.99 | X-H torsion
[ 3721 3712 3711 3710 ] final -160.37 input -179.91 | X-H torsion
[ 3841 3832 3831 3830 ] final  136.56 input -179.91 | X-H torsion
[ 3767 3762 3761 3758 ] final   89.06 input  -89.99 | X-H torsion
[ 2472 2467 2466 2463 ] final   -7.58 input  -89.97 | X-H torsion

> <Gold.Protein.ActiveResidues>
 VAL82   VAL86   LEU89   PHE106  VAL107  ASP110  VAL111  MET112  CYS114  THR115 
 CYS181  SER182  ILE183  PHE188  VAL189  ILE190  SER192  SER193  SER196  TRP342 
 PHE345  PHE346  HIS349  VAL350  TYR365  THR369  GLY372  TYR373 

> <Gold.Protein.RotatedAtoms>
    3.7214   -8.7085    3.8286 H   0  0  0  0  0  0  0  0  0  0  0  0  # atno 1303 bound_to 1298
    0.3504   -8.8980    7.6985 H   0  0  0  0  0  0  0  0  0  0  0  0  # atno 2461 bound_to 2456
   -3.7348   -4.9062    8.1764 H   0  0  0  0  0  0  0  0  0  0  0  0  # atno 2472 bound_to 2467
    2.6458   -7.8259    4.4599 H   0  0  0  0  0  0  0  0  0  0  0  0  # atno 2515 bound_to 2510
   -3.3380  -16.5349   13.8325 H   0  0  0  0  0  0  0  0  0  0  0  0  # atno 3721 bound_to 3712
   -4.2030  -23.3308   10.4898 H   0  0  0  0  0  0  0  0  0  0  0  0  # atno 3767 bound_to 3762
    3.1310  -20.5590    8.7599 H   0  0  0  0  0  0  0  0  0  0  0  0  # atno 3841 bound_to 3832
    4.9121   -9.1838    4.8399 LP  0  0  0  0  0  0  0  0  0  0  0  0  # atno 4297 bound_to 1298
    3.7288  -10.2292    4.4233 LP  0  0  0  0  0  0  0  0  0  0  0  0  # atno 4298 bound_to 1298
    1.8587   -8.9913    8.3181 LP  0  0  0  0  0  0  0  0  0  0  0  0  # atno 4299 bound_to 2456
    1.5284   -7.9190    7.1316 LP  0  0  0  0  0  0  0  0  0  0  0  0  # atno 4300 bound_to 2456
    2.6221   -9.2563    5.2469 LP  0  0  0  0  0  0  0  0  0  0  0  0  # atno 4301 bound_to 2510
    2.0287   -7.9171    5.9688 LP  0  0  0  0  0  0  0  0  0  0  0  0  # atno 4302 bound_to 2510
   -2.8621  -17.9003   13.1347 LP  0  0  0  0  0  0  0  0  0  0  0  0  # atno 4306 bound_to 3712
   -2.8117  -17.7362   14.7586 LP  0  0  0  0  0  0  0  0  0  0  0  0  # atno 4307 bound_to 3712
    1.7494  -20.8172    9.5349 LP  0  0  0  0  0  0  0  0  0  0  0  0  # atno 4314 bound_to 3832
    1.8632  -19.6392    8.4097 LP  0  0  0  0  0  0  0  0  0  0  0  0  # atno 4315 bound_to 3832
   -5.5012  -22.3419   10.4314 LP  0  0  0  0  0  0  0  0  0  0  0  0  # atno 4318 bound_to 3762
   -4.4229  -22.2026   11.6498 LP  0  0  0  0  0  0  0  0  0  0  0  0  # atno 4319 bound_to 3762
   -4.6255   -5.4552    9.4301 LP  0  0  0  0  0  0  0  0  0  0  0  0  # atno 4320 bound_to 2467
   -5.3565   -5.0320    8.0325 LP  0  0  0  0  0  0  0  0  0  0  0  0  # atno 4321 bound_to 2467

> <Gold.Score>
     Score     S(PLP)   S(hbond)     S(cho)   S(metal)  DE(clash)   DE(tors)     intcor
     47.38     -40.92       2.55       0.00       0.00       0.00       0.60       0.01

> <Gold.PLP.Fitness>
47.3762

> <Gold.PLP.PLP>
-40.9234

> <Gold.PLP.part.hbond>
-2.6751

> <Gold.PLP.part.metal>
0.0000

> <Gold.PLP.part.buried>
-5.5036

> <Gold.PLP.part.nonpolar>
-33.5588

> <Gold.PLP.part.repulsive>
0.0132

> <Gold.PLP.ligand.clash>
0.0000

> <Gold.PLP.ligand.torsion>
0.6036

> <Gold.PLP.Chemscore.Hbond>
2.5513

> <Gold.PLP.Chemscore.CHOScore>
0.0000

> <Gold.PLP.Chemscore.Metal>
0.0000

> <Gold.Chemscore.Hbonds>
donor molecule, donor type, donor heavy atom, donor atom, acceptor molecule, acceptor atom, score
      L1  H     5    27       P1  1227  0.99
      L1  H    10    28       P1  1227  0.99
      P1  H  2305  2313       L1     9  0.57

> <Gold.PLP.Chemscore.Internal.Correction>
0.0062

