#       Name:                plp ligand
#       Creating user name   fsindt
#       Creation time:       Mon Feb 27 23:38:46 2023


#       File generated by GOLD software.
#

@<TRIPOS>MOLECULE
plp ligand
    30    31     1
SMALL
USER_CHARGES


@<TRIPOS>ATOM
      1 Cl1         -6.8718   0.7910  -0.2764 NONPOLAR       1 <1>                0.0000
      2 C2          -5.1779   0.4552  -0.0986 NONPOLAR       1 <1>                0.0000
      3 C3          -4.1441   1.3954  -0.1373 NONPOLAR       1 <1>                0.0000
      4 C4          -2.9623   0.7077   0.0459 NONPOLAR       1 <1>                0.0000
      5 N5          -3.2761  -0.6261   0.1930 DONOR          1 <1>                0.0000
      6 C6          -4.6229  -0.7659   0.1085 NONPOLAR       1 <1>                0.0000
      7 Cl7         -5.4930  -2.2627   0.2348 NONPOLAR       1 <1>                0.0000
      8 C8          -1.6177   1.2896   0.0778 NONPOLAR       1 <1>                0.0000
      9 O9          -1.4702   2.4892  -0.0656 ACCEPTOR       1 <1>                0.0000
     10 N10         -0.5445   0.4964   0.2661 DONOR          1 <1>                0.0000
     11 C11          0.7997   1.0781   0.2980 NONPOLAR       1 <1>                0.0000
     12 C12          1.8299  -0.0304   0.5236 NONPOLAR       1 <1>                0.0000
     13 C13          3.2620   0.5397   0.4365 NONPOLAR       1 <1>                0.0000
     14 C14          4.0887  -0.5587  -0.2632 NONPOLAR       1 <1>                0.0000
     15 C15          3.0867  -1.7000  -0.5400 NONPOLAR       1 <1>                0.0000
     16 N16          1.7592  -1.0337  -0.5697 DONOR          1 <1>                1.0000
     17 H17         -4.2506   2.4602  -0.2836                1 <1>                0.0000
     18 H18          1.0030   1.5755  -0.6504                1 <1>                0.0000
     19 H19          0.8626   1.8032   1.1094                1 <1>                0.0000
     20 H20          1.6687  -0.5071   1.4904                1 <1>                0.0000
     21 H21          3.2698   1.4546  -0.1559                1 <1>                0.0000
     22 H22          3.6547   0.7309   1.4351                1 <1>                0.0000
     23 H23          4.5025  -0.1829  -1.1990                1 <1>                0.0000
     24 H24          4.8873  -0.9067   0.3920                1 <1>                0.0000
     25 H25          3.2990  -2.1675  -1.5015                1 <1>                0.0000
     26 H26          3.1228  -2.4399   0.2597                1 <1>                0.0000
     27 H27         -2.6404  -1.3447   0.3360                1 <1>                0.0000
     28 H28         -0.6620  -0.4597   0.3804                1 <1>                0.0000
     29 H29          1.0250  -1.7016  -0.3888                1 <1>                0.0000
     30 H30          1.6130  -0.5780  -1.4580                1 <1>                0.0000
@<TRIPOS>BOND
    1    1    2 1     
    2    2    3 1     
    3    2    6 2     
    4    3    4 2     
    5    3   17 1     
    6    4    5 1     
    7    4    8 1     
    8    5    6 1     
    9    5   27 1     
   10    6    7 1     
   11    8    9 2     
   12    8   10 am    
   13   10   11 1     
   14   10   28 1     
   15   11   12 1     
   16   11   18 1     
   17   11   19 1     
   18   12   13 1     
   19   12   16 1     
   20   12   20 1     
   21   13   14 1     
   22   13   21 1     
   23   13   22 1     
   24   14   15 1     
   25   14   23 1     
   26   14   24 1     
   27   15   16 1     
   28   15   25 1     
   29   15   26 1     
   30   16   29 1     
   31   16   30 1     
@<TRIPOS>SUBSTRUCTURE
      1 ****           1
@<TRIPOS>SET
DONOR_HYDROGENS      STATIC     ATOMS    <user>   **** ""
4 27 28 29 30
ATOM$RED        STATIC     ATOMS    COLORGROUP SYSTEM
4 27 28 29 30
